
---------- Begin Simulation Statistics ----------
sim_seconds                                  0.068495                       # Number of seconds simulated
sim_ticks                                 68495492000                       # Number of ticks simulated
final_tick                               2576859644500                       # Number of ticks from beginning of simulation (restored from checkpoints and never reset)
sim_freq                                 1000000000000                       # Frequency of simulated ticks
host_inst_rate                                  39948                       # Simulator instruction rate (inst/s)
host_op_rate                                    76371                       # Simulator op (including micro ops) rate (op/s)
host_tick_rate                              156526414                       # Simulator tick rate (ticks/s)
host_mem_usage                                3692316                       # Number of bytes of host memory used
host_seconds                                   437.60                       # Real time elapsed on the host
sim_insts                                    17481188                       # Number of instructions simulated
sim_ops                                      33419703                       # Number of ops (including micro ops) simulated
system.voltage_domain.voltage                       1                       # Voltage in Volts
system.clk_domain.clock                          1000                       # Clock period in ticks
system.mem_ctrls0.pwrStateResidencyTicks::UNDEFINED 2576859644500                       # Cumulative time (in ticks) in various power states
system.mem_ctrls0.bytes_read::.cpu0.data           24                       # Number of bytes read from this memory
system.mem_ctrls0.bytes_read::.cpu1.inst           72                       # Number of bytes read from this memory
system.mem_ctrls0.bytes_read::.cpu1.data            8                       # Number of bytes read from this memory
system.mem_ctrls0.bytes_read::.ruby.dir_cntrl0      2173632                       # Number of bytes read from this memory
system.mem_ctrls0.bytes_read::total           2173736                       # Number of bytes read from this memory
system.mem_ctrls0.bytes_inst_read::.cpu1.inst           72                       # Number of instructions bytes read from this memory
system.mem_ctrls0.bytes_inst_read::total           72                       # Number of instructions bytes read from this memory
system.mem_ctrls0.bytes_written::.ruby.dir_cntrl0       319360                       # Number of bytes written to this memory
system.mem_ctrls0.bytes_written::total         319360                       # Number of bytes written to this memory
system.mem_ctrls0.num_reads::.cpu0.data             3                       # Number of read requests responded to by this memory
system.mem_ctrls0.num_reads::.cpu1.inst             9                       # Number of read requests responded to by this memory
system.mem_ctrls0.num_reads::.cpu1.data             1                       # Number of read requests responded to by this memory
system.mem_ctrls0.num_reads::.ruby.dir_cntrl0        33963                       # Number of read requests responded to by this memory
system.mem_ctrls0.num_reads::total              33976                       # Number of read requests responded to by this memory
system.mem_ctrls0.num_writes::.ruby.dir_cntrl0         4990                       # Number of write requests responded to by this memory
system.mem_ctrls0.num_writes::total              4990                       # Number of write requests responded to by this memory
system.mem_ctrls0.bw_read::.cpu0.data             350                       # Total read bandwidth from this memory (bytes/s)
system.mem_ctrls0.bw_read::.cpu1.inst            1051                       # Total read bandwidth from this memory (bytes/s)
system.mem_ctrls0.bw_read::.cpu1.data             117                       # Total read bandwidth from this memory (bytes/s)
system.mem_ctrls0.bw_read::.ruby.dir_cntrl0     31733942                       # Total read bandwidth from this memory (bytes/s)
system.mem_ctrls0.bw_read::total             31735461                       # Total read bandwidth from this memory (bytes/s)
system.mem_ctrls0.bw_inst_read::.cpu1.inst         1051                       # Instruction read bandwidth from this memory (bytes/s)
system.mem_ctrls0.bw_inst_read::total            1051                       # Instruction read bandwidth from this memory (bytes/s)
system.mem_ctrls0.bw_write::.ruby.dir_cntrl0      4662497                       # Write bandwidth from this memory (bytes/s)
system.mem_ctrls0.bw_write::total             4662497                       # Write bandwidth from this memory (bytes/s)
system.mem_ctrls0.bw_total::.cpu0.data            350                       # Total bandwidth to/from this memory (bytes/s)
system.mem_ctrls0.bw_total::.cpu1.inst           1051                       # Total bandwidth to/from this memory (bytes/s)
system.mem_ctrls0.bw_total::.cpu1.data            117                       # Total bandwidth to/from this memory (bytes/s)
system.mem_ctrls0.bw_total::.ruby.dir_cntrl0     36396439                       # Total bandwidth to/from this memory (bytes/s)
system.mem_ctrls0.bw_total::total            36397957                       # Total bandwidth to/from this memory (bytes/s)
system.mem_ctrls0.avgPriority_.ruby.dir_cntrl0::samples     38936.00                       # Average QoS priority value for accepted requests
system.mem_ctrls0.priorityMinLatency     0.000000018750                       # per QoS priority minimum request to response latency (s)
system.mem_ctrls0.priorityMaxLatency     0.021544808750                       # per QoS priority maximum request to response latency (s)
system.mem_ctrls0.numReadWriteTurnArounds          154                       # Number of turnarounds from READ to WRITE
system.mem_ctrls0.numWriteReadTurnArounds          154                       # Number of turnarounds from WRITE to READ
system.mem_ctrls0.numStayReadState              79145                       # Number of times bus staying in READ state
system.mem_ctrls0.numStayWriteState              5059                       # Number of times bus staying in WRITE state
system.mem_ctrls0.readReqs                      33963                       # Number of read requests accepted
system.mem_ctrls0.writeReqs                      4990                       # Number of write requests accepted
system.mem_ctrls0.readBursts                    33963                       # Number of DRAM read bursts, including those serviced by the write queue
system.mem_ctrls0.writeBursts                    4990                       # Number of DRAM write bursts, including those merged in the write queue
system.mem_ctrls0.bytesReadDRAM               2172608                       # Total number of bytes read from DRAM
system.mem_ctrls0.bytesReadWrQ                   1024                       # Total number of bytes read from write queue
system.mem_ctrls0.bytesWritten                 318144                       # Total number of bytes written to DRAM
system.mem_ctrls0.bytesReadSys                2173632                       # Total read bytes from the system interface side
system.mem_ctrls0.bytesWrittenSys              319360                       # Total written bytes from the system interface side
system.mem_ctrls0.servicedByWrQ                    16                       # Number of DRAM read bursts serviced by the write queue
system.mem_ctrls0.mergedWrBursts                    1                       # Number of DRAM write bursts merged with an existing one
system.mem_ctrls0.neitherReadNorWriteReqs            0                       # Number of requests that are neither read nor write
system.mem_ctrls0.perBankRdBursts::0             1558                       # Per bank write bursts
system.mem_ctrls0.perBankRdBursts::1             2502                       # Per bank write bursts
system.mem_ctrls0.perBankRdBursts::2             2137                       # Per bank write bursts
system.mem_ctrls0.perBankRdBursts::3             2288                       # Per bank write bursts
system.mem_ctrls0.perBankRdBursts::4             2425                       # Per bank write bursts
system.mem_ctrls0.perBankRdBursts::5             2379                       # Per bank write bursts
system.mem_ctrls0.perBankRdBursts::6             2206                       # Per bank write bursts
system.mem_ctrls0.perBankRdBursts::7             2562                       # Per bank write bursts
system.mem_ctrls0.perBankRdBursts::8             2264                       # Per bank write bursts
system.mem_ctrls0.perBankRdBursts::9             2074                       # Per bank write bursts
system.mem_ctrls0.perBankRdBursts::10            2306                       # Per bank write bursts
system.mem_ctrls0.perBankRdBursts::11            2037                       # Per bank write bursts
system.mem_ctrls0.perBankRdBursts::12            1855                       # Per bank write bursts
system.mem_ctrls0.perBankRdBursts::13            1713                       # Per bank write bursts
system.mem_ctrls0.perBankRdBursts::14            1919                       # Per bank write bursts
system.mem_ctrls0.perBankRdBursts::15            1722                       # Per bank write bursts
system.mem_ctrls0.perBankWrBursts::0              228                       # Per bank write bursts
system.mem_ctrls0.perBankWrBursts::1              402                       # Per bank write bursts
system.mem_ctrls0.perBankWrBursts::2              292                       # Per bank write bursts
system.mem_ctrls0.perBankWrBursts::3              284                       # Per bank write bursts
system.mem_ctrls0.perBankWrBursts::4              438                       # Per bank write bursts
system.mem_ctrls0.perBankWrBursts::5              386                       # Per bank write bursts
system.mem_ctrls0.perBankWrBursts::6              271                       # Per bank write bursts
system.mem_ctrls0.perBankWrBursts::7              360                       # Per bank write bursts
system.mem_ctrls0.perBankWrBursts::8              401                       # Per bank write bursts
system.mem_ctrls0.perBankWrBursts::9              416                       # Per bank write bursts
system.mem_ctrls0.perBankWrBursts::10             395                       # Per bank write bursts
system.mem_ctrls0.perBankWrBursts::11             291                       # Per bank write bursts
system.mem_ctrls0.perBankWrBursts::12             170                       # Per bank write bursts
system.mem_ctrls0.perBankWrBursts::13             233                       # Per bank write bursts
system.mem_ctrls0.perBankWrBursts::14             197                       # Per bank write bursts
system.mem_ctrls0.perBankWrBursts::15             207                       # Per bank write bursts
system.mem_ctrls0.numRdRetry                        0                       # Number of times read queue was full causing retry
system.mem_ctrls0.numWrRetry                      673                       # Number of times write queue was full causing retry
system.mem_ctrls0.totGap                  68494270000                       # Total gap between requests
system.mem_ctrls0.readPktSize::0                    0                       # Read request sizes (log2)
system.mem_ctrls0.readPktSize::1                    0                       # Read request sizes (log2)
system.mem_ctrls0.readPktSize::2                    0                       # Read request sizes (log2)
system.mem_ctrls0.readPktSize::3                    0                       # Read request sizes (log2)
system.mem_ctrls0.readPktSize::4                    0                       # Read request sizes (log2)
system.mem_ctrls0.readPktSize::5                    0                       # Read request sizes (log2)
system.mem_ctrls0.readPktSize::6                33963                       # Read request sizes (log2)
system.mem_ctrls0.writePktSize::0                   0                       # Write request sizes (log2)
system.mem_ctrls0.writePktSize::1                   0                       # Write request sizes (log2)
system.mem_ctrls0.writePktSize::2                   0                       # Write request sizes (log2)
system.mem_ctrls0.writePktSize::3                   0                       # Write request sizes (log2)
system.mem_ctrls0.writePktSize::4                   0                       # Write request sizes (log2)
system.mem_ctrls0.writePktSize::5                   0                       # Write request sizes (log2)
system.mem_ctrls0.writePktSize::6                4990                       # Write request sizes (log2)
system.mem_ctrls0.rdQLenPdf::0                  31458                       # What read queue length does an incoming req see
system.mem_ctrls0.rdQLenPdf::1                   2296                       # What read queue length does an incoming req see
system.mem_ctrls0.rdQLenPdf::2                    176                       # What read queue length does an incoming req see
system.mem_ctrls0.rdQLenPdf::3                     16                       # What read queue length does an incoming req see
system.mem_ctrls0.rdQLenPdf::4                      1                       # What read queue length does an incoming req see
system.mem_ctrls0.rdQLenPdf::5                      0                       # What read queue length does an incoming req see
system.mem_ctrls0.rdQLenPdf::6                      0                       # What read queue length does an incoming req see
system.mem_ctrls0.rdQLenPdf::7                      0                       # What read queue length does an incoming req see
system.mem_ctrls0.rdQLenPdf::8                      0                       # What read queue length does an incoming req see
system.mem_ctrls0.rdQLenPdf::9                      0                       # What read queue length does an incoming req see
system.mem_ctrls0.rdQLenPdf::10                     0                       # What read queue length does an incoming req see
system.mem_ctrls0.rdQLenPdf::11                     0                       # What read queue length does an incoming req see
system.mem_ctrls0.rdQLenPdf::12                     0                       # What read queue length does an incoming req see
system.mem_ctrls0.rdQLenPdf::13                     0                       # What read queue length does an incoming req see
system.mem_ctrls0.rdQLenPdf::14                     0                       # What read queue length does an incoming req see
system.mem_ctrls0.rdQLenPdf::15                     0                       # What read queue length does an incoming req see
system.mem_ctrls0.rdQLenPdf::16                     0                       # What read queue length does an incoming req see
system.mem_ctrls0.rdQLenPdf::17                     0                       # What read queue length does an incoming req see
system.mem_ctrls0.rdQLenPdf::18                     0                       # What read queue length does an incoming req see
system.mem_ctrls0.rdQLenPdf::19                     0                       # What read queue length does an incoming req see
system.mem_ctrls0.rdQLenPdf::20                     0                       # What read queue length does an incoming req see
system.mem_ctrls0.rdQLenPdf::21                     0                       # What read queue length does an incoming req see
system.mem_ctrls0.rdQLenPdf::22                     0                       # What read queue length does an incoming req see
system.mem_ctrls0.rdQLenPdf::23                     0                       # What read queue length does an incoming req see
system.mem_ctrls0.rdQLenPdf::24                     0                       # What read queue length does an incoming req see
system.mem_ctrls0.rdQLenPdf::25                     0                       # What read queue length does an incoming req see
system.mem_ctrls0.rdQLenPdf::26                     0                       # What read queue length does an incoming req see
system.mem_ctrls0.rdQLenPdf::27                     0                       # What read queue length does an incoming req see
system.mem_ctrls0.rdQLenPdf::28                     0                       # What read queue length does an incoming req see
system.mem_ctrls0.rdQLenPdf::29                     0                       # What read queue length does an incoming req see
system.mem_ctrls0.rdQLenPdf::30                     0                       # What read queue length does an incoming req see
system.mem_ctrls0.rdQLenPdf::31                     0                       # What read queue length does an incoming req see
system.mem_ctrls0.wrQLenPdf::0                      1                       # What write queue length does an incoming req see
system.mem_ctrls0.wrQLenPdf::1                      1                       # What write queue length does an incoming req see
system.mem_ctrls0.wrQLenPdf::2                      1                       # What write queue length does an incoming req see
system.mem_ctrls0.wrQLenPdf::3                      1                       # What write queue length does an incoming req see
system.mem_ctrls0.wrQLenPdf::4                      1                       # What write queue length does an incoming req see
system.mem_ctrls0.wrQLenPdf::5                      1                       # What write queue length does an incoming req see
system.mem_ctrls0.wrQLenPdf::6                      1                       # What write queue length does an incoming req see
system.mem_ctrls0.wrQLenPdf::7                      1                       # What write queue length does an incoming req see
system.mem_ctrls0.wrQLenPdf::8                      1                       # What write queue length does an incoming req see
system.mem_ctrls0.wrQLenPdf::9                      1                       # What write queue length does an incoming req see
system.mem_ctrls0.wrQLenPdf::10                     1                       # What write queue length does an incoming req see
system.mem_ctrls0.wrQLenPdf::11                     1                       # What write queue length does an incoming req see
system.mem_ctrls0.wrQLenPdf::12                     1                       # What write queue length does an incoming req see
system.mem_ctrls0.wrQLenPdf::13                     1                       # What write queue length does an incoming req see
system.mem_ctrls0.wrQLenPdf::14                     1                       # What write queue length does an incoming req see
system.mem_ctrls0.wrQLenPdf::15                    69                       # What write queue length does an incoming req see
system.mem_ctrls0.wrQLenPdf::16                    70                       # What write queue length does an incoming req see
system.mem_ctrls0.wrQLenPdf::17                   128                       # What write queue length does an incoming req see
system.mem_ctrls0.wrQLenPdf::18                   128                       # What write queue length does an incoming req see
system.mem_ctrls0.wrQLenPdf::19                   128                       # What write queue length does an incoming req see
system.mem_ctrls0.wrQLenPdf::20                   128                       # What write queue length does an incoming req see
system.mem_ctrls0.wrQLenPdf::21                   129                       # What write queue length does an incoming req see
system.mem_ctrls0.wrQLenPdf::22                   128                       # What write queue length does an incoming req see
system.mem_ctrls0.wrQLenPdf::23                   129                       # What write queue length does an incoming req see
system.mem_ctrls0.wrQLenPdf::24                   129                       # What write queue length does an incoming req see
system.mem_ctrls0.wrQLenPdf::25                   129                       # What write queue length does an incoming req see
system.mem_ctrls0.wrQLenPdf::26                   133                       # What write queue length does an incoming req see
system.mem_ctrls0.wrQLenPdf::27                   191                       # What write queue length does an incoming req see
system.mem_ctrls0.wrQLenPdf::28                   204                       # What write queue length does an incoming req see
system.mem_ctrls0.wrQLenPdf::29                   186                       # What write queue length does an incoming req see
system.mem_ctrls0.wrQLenPdf::30                   213                       # What write queue length does an incoming req see
system.mem_ctrls0.wrQLenPdf::31                   239                       # What write queue length does an incoming req see
system.mem_ctrls0.wrQLenPdf::32                   221                       # What write queue length does an incoming req see
system.mem_ctrls0.wrQLenPdf::33                   105                       # What write queue length does an incoming req see
system.mem_ctrls0.wrQLenPdf::34                    95                       # What write queue length does an incoming req see
system.mem_ctrls0.wrQLenPdf::35                    65                       # What write queue length does an incoming req see
system.mem_ctrls0.wrQLenPdf::36                    66                       # What write queue length does an incoming req see
system.mem_ctrls0.wrQLenPdf::37                    57                       # What write queue length does an incoming req see
system.mem_ctrls0.wrQLenPdf::38                    54                       # What write queue length does an incoming req see
system.mem_ctrls0.wrQLenPdf::39                    46                       # What write queue length does an incoming req see
system.mem_ctrls0.wrQLenPdf::40                    61                       # What write queue length does an incoming req see
system.mem_ctrls0.wrQLenPdf::41                    54                       # What write queue length does an incoming req see
system.mem_ctrls0.wrQLenPdf::42                    54                       # What write queue length does an incoming req see
system.mem_ctrls0.wrQLenPdf::43                    52                       # What write queue length does an incoming req see
system.mem_ctrls0.wrQLenPdf::44                    42                       # What write queue length does an incoming req see
system.mem_ctrls0.wrQLenPdf::45                    40                       # What write queue length does an incoming req see
system.mem_ctrls0.wrQLenPdf::46                    37                       # What write queue length does an incoming req see
system.mem_ctrls0.wrQLenPdf::47                    33                       # What write queue length does an incoming req see
system.mem_ctrls0.wrQLenPdf::48                    36                       # What write queue length does an incoming req see
system.mem_ctrls0.wrQLenPdf::49                    34                       # What write queue length does an incoming req see
system.mem_ctrls0.wrQLenPdf::50                    33                       # What write queue length does an incoming req see
system.mem_ctrls0.wrQLenPdf::51                    46                       # What write queue length does an incoming req see
system.mem_ctrls0.wrQLenPdf::52                    43                       # What write queue length does an incoming req see
system.mem_ctrls0.wrQLenPdf::53                    40                       # What write queue length does an incoming req see
system.mem_ctrls0.wrQLenPdf::54                    40                       # What write queue length does an incoming req see
system.mem_ctrls0.wrQLenPdf::55                    36                       # What write queue length does an incoming req see
system.mem_ctrls0.wrQLenPdf::56                    35                       # What write queue length does an incoming req see
system.mem_ctrls0.wrQLenPdf::57                    34                       # What write queue length does an incoming req see
system.mem_ctrls0.wrQLenPdf::58                    45                       # What write queue length does an incoming req see
system.mem_ctrls0.wrQLenPdf::59                    64                       # What write queue length does an incoming req see
system.mem_ctrls0.wrQLenPdf::60                    76                       # What write queue length does an incoming req see
system.mem_ctrls0.wrQLenPdf::61                    69                       # What write queue length does an incoming req see
system.mem_ctrls0.wrQLenPdf::62                    57                       # What write queue length does an incoming req see
system.mem_ctrls0.wrQLenPdf::63                   743                       # What write queue length does an incoming req see
system.mem_ctrls0.bytesPerActivate::samples        16156                       # Bytes accessed per row activation
system.mem_ctrls0.bytesPerActivate::mean   154.156970                       # Bytes accessed per row activation
system.mem_ctrls0.bytesPerActivate::gmean    99.683212                       # Bytes accessed per row activation
system.mem_ctrls0.bytesPerActivate::stdev   218.506103                       # Bytes accessed per row activation
system.mem_ctrls0.bytesPerActivate::0-127        10829     67.03%     67.03% # Bytes accessed per row activation
system.mem_ctrls0.bytesPerActivate::128-255         3093     19.14%     86.17% # Bytes accessed per row activation
system.mem_ctrls0.bytesPerActivate::256-383          824      5.10%     91.27% # Bytes accessed per row activation
system.mem_ctrls0.bytesPerActivate::384-511          299      1.85%     93.12% # Bytes accessed per row activation
system.mem_ctrls0.bytesPerActivate::512-639          180      1.11%     94.24% # Bytes accessed per row activation
system.mem_ctrls0.bytesPerActivate::640-767           99      0.61%     94.85% # Bytes accessed per row activation
system.mem_ctrls0.bytesPerActivate::768-895           68      0.42%     95.27% # Bytes accessed per row activation
system.mem_ctrls0.bytesPerActivate::896-1023           90      0.56%     95.83% # Bytes accessed per row activation
system.mem_ctrls0.bytesPerActivate::1024-1151          674      4.17%    100.00% # Bytes accessed per row activation
system.mem_ctrls0.bytesPerActivate::total        16156                       # Bytes accessed per row activation
system.mem_ctrls0.rdPerTurnAround::samples          154                       # Reads before turning the bus around for writes
system.mem_ctrls0.rdPerTurnAround::mean    220.383117                       # Reads before turning the bus around for writes
system.mem_ctrls0.rdPerTurnAround::stdev  1814.999138                       # Reads before turning the bus around for writes
system.mem_ctrls0.rdPerTurnAround::0-1023          153     99.35%     99.35% # Reads before turning the bus around for writes
system.mem_ctrls0.rdPerTurnAround::22528-23551            1      0.65%    100.00% # Reads before turning the bus around for writes
system.mem_ctrls0.rdPerTurnAround::total          154                       # Reads before turning the bus around for writes
system.mem_ctrls0.wrPerTurnAround::samples          154                       # Writes before turning the bus around for reads
system.mem_ctrls0.wrPerTurnAround::mean     32.279221                       # Writes before turning the bus around for reads
system.mem_ctrls0.wrPerTurnAround::gmean    23.273066                       # Writes before turning the bus around for reads
system.mem_ctrls0.wrPerTurnAround::stdev    54.146316                       # Writes before turning the bus around for reads
system.mem_ctrls0.wrPerTurnAround::16-23          100     64.94%     64.94% # Writes before turning the bus around for reads
system.mem_ctrls0.wrPerTurnAround::24-31           12      7.79%     72.73% # Writes before turning the bus around for reads
system.mem_ctrls0.wrPerTurnAround::32-39           22     14.29%     87.01% # Writes before turning the bus around for reads
system.mem_ctrls0.wrPerTurnAround::40-47           11      7.14%     94.16% # Writes before turning the bus around for reads
system.mem_ctrls0.wrPerTurnAround::48-55            1      0.65%     94.81% # Writes before turning the bus around for reads
system.mem_ctrls0.wrPerTurnAround::64-71            3      1.95%     96.75% # Writes before turning the bus around for reads
system.mem_ctrls0.wrPerTurnAround::176-183            1      0.65%     97.40% # Writes before turning the bus around for reads
system.mem_ctrls0.wrPerTurnAround::224-231            1      0.65%     98.05% # Writes before turning the bus around for reads
system.mem_ctrls0.wrPerTurnAround::256-263            1      0.65%     98.70% # Writes before turning the bus around for reads
system.mem_ctrls0.wrPerTurnAround::400-407            1      0.65%     99.35% # Writes before turning the bus around for reads
system.mem_ctrls0.wrPerTurnAround::440-447            1      0.65%    100.00% # Writes before turning the bus around for reads
system.mem_ctrls0.wrPerTurnAround::total          154                       # Writes before turning the bus around for reads
system.mem_ctrls0.masterReadBytes::.ruby.dir_cntrl0      2172608                       # Per-master bytes read from memory
system.mem_ctrls0.masterWriteBytes::.ruby.dir_cntrl0       318144                       # Per-master bytes write to memory
system.mem_ctrls0.masterReadRate::.ruby.dir_cntrl0 31718992.543334089220                       # Per-master bytes read from memory rate (Bytes/sec)
system.mem_ctrls0.masterWriteRate::.ruby.dir_cntrl0 4644743.627799621783                       # Per-master bytes write to memory rate (Bytes/sec)
system.mem_ctrls0.masterReadAccesses::.ruby.dir_cntrl0        33963                       # Per-master read serviced memory accesses
system.mem_ctrls0.masterWriteAccesses::.ruby.dir_cntrl0         4990                       # Per-master write serviced memory accesses
system.mem_ctrls0.masterReadTotalLat::.ruby.dir_cntrl0   2716856724                       # Per-master read total memory access latency
system.mem_ctrls0.masterWriteTotalLat::.ruby.dir_cntrl0 915737889466                       # Per-master write total memory access latency
system.mem_ctrls0.masterReadAvgLat::.ruby.dir_cntrl0     79994.60                       # Per-master read average memory access latency
system.mem_ctrls0.masterWriteAvgLat::.ruby.dir_cntrl0 183514607.11                       # Per-master write average memory access latency
system.mem_ctrls0.totQLat                  2080350474                       # Total ticks spent queuing
system.mem_ctrls0.totMemAccLat             2716856724                       # Total ticks spent from burst creation until serviced by the DRAM
system.mem_ctrls0.totBusLat                 169735000                       # Total ticks spent in databus transfers
system.mem_ctrls0.avgQLat                    61282.31                       # Average queueing delay per DRAM burst
system.mem_ctrls0.avgBusLat                   5000.00                       # Average bus latency per DRAM burst
system.mem_ctrls0.avgMemAccLat               80032.31                       # Average memory access latency per DRAM burst
system.mem_ctrls0.avgRdBW                       31.72                       # Average DRAM read bandwidth in MiByte/s
system.mem_ctrls0.avgWrBW                        4.64                       # Average achieved write bandwidth in MiByte/s
system.mem_ctrls0.avgRdBWSys                    31.73                       # Average system read bandwidth in MiByte/s
system.mem_ctrls0.avgWrBWSys                     4.66                       # Average system write bandwidth in MiByte/s
system.mem_ctrls0.peakBW                     12800.00                       # Theoretical peak bandwidth in MiByte/s
system.mem_ctrls0.busUtil                        0.28                       # Data bus utilization in percentage
system.mem_ctrls0.busUtilRead                    0.25                       # Data bus utilization in percentage for reads
system.mem_ctrls0.busUtilWrite                   0.04                       # Data bus utilization in percentage for writes
system.mem_ctrls0.avgRdQLen                      1.05                       # Average read queue length when enqueuing
system.mem_ctrls0.avgWrQLen                     14.64                       # Average write queue length when enqueuing
system.mem_ctrls0.readRowHits                   19075                       # Number of row buffer hits during reads
system.mem_ctrls0.writeRowHits                   3686                       # Number of row buffer hits during writes
system.mem_ctrls0.readRowHitRate                56.19                       # Row buffer hit rate for reads
system.mem_ctrls0.writeRowHitRate               73.88                       # Row buffer hit rate for writes
system.mem_ctrls0.avgGap                   1758382.41                       # Average gap between requests
system.mem_ctrls0.pageHitRate                   58.46                       # Row buffer hit rate, read and write combined
system.mem_ctrls0_0.actEnergy                61411140                       # Energy for activate commands per rank (pJ)
system.mem_ctrls0_0.preEnergy                32637000                       # Energy for precharge commands per rank (pJ)
system.mem_ctrls0_0.readEnergy              128926980                       # Energy for read commands per rank (pJ)
system.mem_ctrls0_0.writeEnergy              13890420                       # Energy for write commands per rank (pJ)
system.mem_ctrls0_0.refreshEnergy        2873442000.000000                       # Energy for refresh commands per rank (pJ)
system.mem_ctrls0_0.actBackEnergy           889630350                       # Energy for active background per rank (pJ)
system.mem_ctrls0_0.preBackEnergy           189762720                       # Energy for precharge background per rank (pJ)
system.mem_ctrls0_0.actPowerDownEnergy     9301723410                       # Energy for active power-down per rank (pJ)
system.mem_ctrls0_0.prePowerDownEnergy     5342676960                       # Energy for precharge power-down per rank (pJ)
system.mem_ctrls0_0.selfRefreshEnergy      8334075420                       # Energy for self refresh per rank (pJ)
system.mem_ctrls0_0.totalEnergy           27170362740                       # Total energy per rank (pJ)
system.mem_ctrls0_0.averagePower           396.673736                       # Core power per rank (mW)
system.mem_ctrls0_0.totalIdleTime         66044390501                       # Total Idle time Per DRAM Rank
system.mem_ctrls0_0.memoryStateTime::IDLE    379530000                       # Time in different power states
system.mem_ctrls0_0.memoryStateTime::REF   1215500000                       # Time in different power states
system.mem_ctrls0_0.memoryStateTime::SREF  31733756250                       # Time in different power states
system.mem_ctrls0_0.memoryStateTime::PRE_PDN  13913210750                       # Time in different power states
system.mem_ctrls0_0.memoryStateTime::ACT    854883749                       # Time in different power states
system.mem_ctrls0_0.memoryStateTime::ACT_PDN  20398600251                       # Time in different power states
system.mem_ctrls0_1.actEnergy                53949840                       # Energy for activate commands per rank (pJ)
system.mem_ctrls0_1.preEnergy                28675020                       # Energy for precharge commands per rank (pJ)
system.mem_ctrls0_1.readEnergy              113454600                       # Energy for read commands per rank (pJ)
system.mem_ctrls0_1.writeEnergy              12058200                       # Energy for write commands per rank (pJ)
system.mem_ctrls0_1.refreshEnergy        2857461360.000000                       # Energy for refresh commands per rank (pJ)
system.mem_ctrls0_1.actBackEnergy           836906490                       # Energy for active background per rank (pJ)
system.mem_ctrls0_1.preBackEnergy           200718240                       # Energy for precharge background per rank (pJ)
system.mem_ctrls0_1.actPowerDownEnergy     8916491190                       # Energy for active power-down per rank (pJ)
system.mem_ctrls0_1.prePowerDownEnergy     5638410720                       # Energy for precharge power-down per rank (pJ)
system.mem_ctrls0_1.selfRefreshEnergy      8444082780                       # Energy for self refresh per rank (pJ)
system.mem_ctrls0_1.totalEnergy           27104135160                       # Total energy per rank (pJ)
system.mem_ctrls0_1.averagePower           395.706847                       # Core power per rank (mW)
system.mem_ctrls0_1.totalIdleTime         66129804503                       # Total Idle time Per DRAM Rank
system.mem_ctrls0_1.memoryStateTime::IDLE    414113500                       # Time in different power states
system.mem_ctrls0_1.memoryStateTime::REF   1208740000                       # Time in different power states
system.mem_ctrls0_1.memoryStateTime::SREF  31895836500                       # Time in different power states
system.mem_ctrls0_1.memoryStateTime::PRE_PDN  14683335250                       # Time in different power states
system.mem_ctrls0_1.memoryStateTime::ACT    739742997                       # Time in different power states
system.mem_ctrls0_1.memoryStateTime::ACT_PDN  19553712753                       # Time in different power states
system.mem_ctrls1.pwrStateResidencyTicks::UNDEFINED 2576859644500                       # Cumulative time (in ticks) in various power states
system.mem_ctrls1.bytes_read::.cpu0.inst           64                       # Number of bytes read from this memory
system.mem_ctrls1.bytes_read::.cpu0.data           32                       # Number of bytes read from this memory
system.mem_ctrls1.bytes_read::.cpu1.data           16                       # Number of bytes read from this memory
system.mem_ctrls1.bytes_read::.ruby.dir_cntrl1      2169472                       # Number of bytes read from this memory
system.mem_ctrls1.bytes_read::total           2169584                       # Number of bytes read from this memory
system.mem_ctrls1.bytes_inst_read::.cpu0.inst           64                       # Number of instructions bytes read from this memory
system.mem_ctrls1.bytes_inst_read::total           64                       # Number of instructions bytes read from this memory
system.mem_ctrls1.bytes_written::.cpu1.data           16                       # Number of bytes written to this memory
system.mem_ctrls1.bytes_written::.ruby.dir_cntrl1       316864                       # Number of bytes written to this memory
system.mem_ctrls1.bytes_written::total         316880                       # Number of bytes written to this memory
system.mem_ctrls1.num_reads::.cpu0.inst             8                       # Number of read requests responded to by this memory
system.mem_ctrls1.num_reads::.cpu0.data             4                       # Number of read requests responded to by this memory
system.mem_ctrls1.num_reads::.cpu1.data             2                       # Number of read requests responded to by this memory
system.mem_ctrls1.num_reads::.ruby.dir_cntrl1        33898                       # Number of read requests responded to by this memory
system.mem_ctrls1.num_reads::total              33912                       # Number of read requests responded to by this memory
system.mem_ctrls1.num_writes::.cpu1.data            2                       # Number of write requests responded to by this memory
system.mem_ctrls1.num_writes::.ruby.dir_cntrl1         4951                       # Number of write requests responded to by this memory
system.mem_ctrls1.num_writes::total              4953                       # Number of write requests responded to by this memory
system.mem_ctrls1.bw_read::.cpu0.inst             934                       # Total read bandwidth from this memory (bytes/s)
system.mem_ctrls1.bw_read::.cpu0.data             467                       # Total read bandwidth from this memory (bytes/s)
system.mem_ctrls1.bw_read::.cpu1.data             234                       # Total read bandwidth from this memory (bytes/s)
system.mem_ctrls1.bw_read::.ruby.dir_cntrl1     31673209                       # Total read bandwidth from this memory (bytes/s)
system.mem_ctrls1.bw_read::total             31674844                       # Total read bandwidth from this memory (bytes/s)
system.mem_ctrls1.bw_inst_read::.cpu0.inst          934                       # Instruction read bandwidth from this memory (bytes/s)
system.mem_ctrls1.bw_inst_read::total             934                       # Instruction read bandwidth from this memory (bytes/s)
system.mem_ctrls1.bw_write::.cpu1.data            234                       # Write bandwidth from this memory (bytes/s)
system.mem_ctrls1.bw_write::.ruby.dir_cntrl1      4626056                       # Write bandwidth from this memory (bytes/s)
system.mem_ctrls1.bw_write::total             4626290                       # Write bandwidth from this memory (bytes/s)
system.mem_ctrls1.bw_total::.cpu0.inst            934                       # Total bandwidth to/from this memory (bytes/s)
system.mem_ctrls1.bw_total::.cpu0.data            467                       # Total bandwidth to/from this memory (bytes/s)
system.mem_ctrls1.bw_total::.cpu1.data            467                       # Total bandwidth to/from this memory (bytes/s)
system.mem_ctrls1.bw_total::.ruby.dir_cntrl1     36299265                       # Total bandwidth to/from this memory (bytes/s)
system.mem_ctrls1.bw_total::total            36301134                       # Total bandwidth to/from this memory (bytes/s)
system.mem_ctrls1.avgPriority_.ruby.dir_cntrl1::samples     38837.00                       # Average QoS priority value for accepted requests
system.mem_ctrls1.priorityMinLatency     0.000000018750                       # per QoS priority minimum request to response latency (s)
system.mem_ctrls1.priorityMaxLatency     0.030575767750                       # per QoS priority maximum request to response latency (s)
system.mem_ctrls1.numReadWriteTurnArounds          138                       # Number of turnarounds from READ to WRITE
system.mem_ctrls1.numWriteReadTurnArounds          138                       # Number of turnarounds from WRITE to READ
system.mem_ctrls1.numStayReadState              78935                       # Number of times bus staying in READ state
system.mem_ctrls1.numStayWriteState              5038                       # Number of times bus staying in WRITE state
system.mem_ctrls1.readReqs                      33898                       # Number of read requests accepted
system.mem_ctrls1.writeReqs                      4951                       # Number of write requests accepted
system.mem_ctrls1.readBursts                    33898                       # Number of DRAM read bursts, including those serviced by the write queue
system.mem_ctrls1.writeBursts                    4951                       # Number of DRAM write bursts, including those merged in the write queue
system.mem_ctrls1.bytesReadDRAM               2168704                       # Total number of bytes read from DRAM
system.mem_ctrls1.bytesReadWrQ                    768                       # Total number of bytes read from write queue
system.mem_ctrls1.bytesWritten                 315008                       # Total number of bytes written to DRAM
system.mem_ctrls1.bytesReadSys                2169472                       # Total read bytes from the system interface side
system.mem_ctrls1.bytesWrittenSys              316864                       # Total written bytes from the system interface side
system.mem_ctrls1.servicedByWrQ                    12                       # Number of DRAM read bursts serviced by the write queue
system.mem_ctrls1.mergedWrBursts                    0                       # Number of DRAM write bursts merged with an existing one
system.mem_ctrls1.neitherReadNorWriteReqs            0                       # Number of requests that are neither read nor write
system.mem_ctrls1.perBankRdBursts::0             1575                       # Per bank write bursts
system.mem_ctrls1.perBankRdBursts::1             2494                       # Per bank write bursts
system.mem_ctrls1.perBankRdBursts::2             2129                       # Per bank write bursts
system.mem_ctrls1.perBankRdBursts::3             2269                       # Per bank write bursts
system.mem_ctrls1.perBankRdBursts::4             2419                       # Per bank write bursts
system.mem_ctrls1.perBankRdBursts::5             2353                       # Per bank write bursts
system.mem_ctrls1.perBankRdBursts::6             2234                       # Per bank write bursts
system.mem_ctrls1.perBankRdBursts::7             2577                       # Per bank write bursts
system.mem_ctrls1.perBankRdBursts::8             2192                       # Per bank write bursts
system.mem_ctrls1.perBankRdBursts::9             2054                       # Per bank write bursts
system.mem_ctrls1.perBankRdBursts::10            2342                       # Per bank write bursts
system.mem_ctrls1.perBankRdBursts::11            2069                       # Per bank write bursts
system.mem_ctrls1.perBankRdBursts::12            1868                       # Per bank write bursts
system.mem_ctrls1.perBankRdBursts::13            1681                       # Per bank write bursts
system.mem_ctrls1.perBankRdBursts::14            1910                       # Per bank write bursts
system.mem_ctrls1.perBankRdBursts::15            1720                       # Per bank write bursts
system.mem_ctrls1.perBankWrBursts::0              235                       # Per bank write bursts
system.mem_ctrls1.perBankWrBursts::1              431                       # Per bank write bursts
system.mem_ctrls1.perBankWrBursts::2              291                       # Per bank write bursts
system.mem_ctrls1.perBankWrBursts::3              296                       # Per bank write bursts
system.mem_ctrls1.perBankWrBursts::4              427                       # Per bank write bursts
system.mem_ctrls1.perBankWrBursts::5              374                       # Per bank write bursts
system.mem_ctrls1.perBankWrBursts::6              267                       # Per bank write bursts
system.mem_ctrls1.perBankWrBursts::7              353                       # Per bank write bursts
system.mem_ctrls1.perBankWrBursts::8              379                       # Per bank write bursts
system.mem_ctrls1.perBankWrBursts::9              399                       # Per bank write bursts
system.mem_ctrls1.perBankWrBursts::10             375                       # Per bank write bursts
system.mem_ctrls1.perBankWrBursts::11             283                       # Per bank write bursts
system.mem_ctrls1.perBankWrBursts::12             179                       # Per bank write bursts
system.mem_ctrls1.perBankWrBursts::13             238                       # Per bank write bursts
system.mem_ctrls1.perBankWrBursts::14             188                       # Per bank write bursts
system.mem_ctrls1.perBankWrBursts::15             207                       # Per bank write bursts
system.mem_ctrls1.numRdRetry                        0                       # Number of times read queue was full causing retry
system.mem_ctrls1.numWrRetry                      822                       # Number of times write queue was full causing retry
system.mem_ctrls1.totGap                  68494809000                       # Total gap between requests
system.mem_ctrls1.readPktSize::0                    0                       # Read request sizes (log2)
system.mem_ctrls1.readPktSize::1                    0                       # Read request sizes (log2)
system.mem_ctrls1.readPktSize::2                    0                       # Read request sizes (log2)
system.mem_ctrls1.readPktSize::3                    0                       # Read request sizes (log2)
system.mem_ctrls1.readPktSize::4                    0                       # Read request sizes (log2)
system.mem_ctrls1.readPktSize::5                    0                       # Read request sizes (log2)
system.mem_ctrls1.readPktSize::6                33898                       # Read request sizes (log2)
system.mem_ctrls1.writePktSize::0                   0                       # Write request sizes (log2)
system.mem_ctrls1.writePktSize::1                   0                       # Write request sizes (log2)
system.mem_ctrls1.writePktSize::2                   0                       # Write request sizes (log2)
system.mem_ctrls1.writePktSize::3                   0                       # Write request sizes (log2)
system.mem_ctrls1.writePktSize::4                   0                       # Write request sizes (log2)
system.mem_ctrls1.writePktSize::5                   0                       # Write request sizes (log2)
system.mem_ctrls1.writePktSize::6                4951                       # Write request sizes (log2)
system.mem_ctrls1.rdQLenPdf::0                  31434                       # What read queue length does an incoming req see
system.mem_ctrls1.rdQLenPdf::1                   2281                       # What read queue length does an incoming req see
system.mem_ctrls1.rdQLenPdf::2                    156                       # What read queue length does an incoming req see
system.mem_ctrls1.rdQLenPdf::3                     13                       # What read queue length does an incoming req see
system.mem_ctrls1.rdQLenPdf::4                      1                       # What read queue length does an incoming req see
system.mem_ctrls1.rdQLenPdf::5                      1                       # What read queue length does an incoming req see
system.mem_ctrls1.rdQLenPdf::6                      0                       # What read queue length does an incoming req see
system.mem_ctrls1.rdQLenPdf::7                      0                       # What read queue length does an incoming req see
system.mem_ctrls1.rdQLenPdf::8                      0                       # What read queue length does an incoming req see
system.mem_ctrls1.rdQLenPdf::9                      0                       # What read queue length does an incoming req see
system.mem_ctrls1.rdQLenPdf::10                     0                       # What read queue length does an incoming req see
system.mem_ctrls1.rdQLenPdf::11                     0                       # What read queue length does an incoming req see
system.mem_ctrls1.rdQLenPdf::12                     0                       # What read queue length does an incoming req see
system.mem_ctrls1.rdQLenPdf::13                     0                       # What read queue length does an incoming req see
system.mem_ctrls1.rdQLenPdf::14                     0                       # What read queue length does an incoming req see
system.mem_ctrls1.rdQLenPdf::15                     0                       # What read queue length does an incoming req see
system.mem_ctrls1.rdQLenPdf::16                     0                       # What read queue length does an incoming req see
system.mem_ctrls1.rdQLenPdf::17                     0                       # What read queue length does an incoming req see
system.mem_ctrls1.rdQLenPdf::18                     0                       # What read queue length does an incoming req see
system.mem_ctrls1.rdQLenPdf::19                     0                       # What read queue length does an incoming req see
system.mem_ctrls1.rdQLenPdf::20                     0                       # What read queue length does an incoming req see
system.mem_ctrls1.rdQLenPdf::21                     0                       # What read queue length does an incoming req see
system.mem_ctrls1.rdQLenPdf::22                     0                       # What read queue length does an incoming req see
system.mem_ctrls1.rdQLenPdf::23                     0                       # What read queue length does an incoming req see
system.mem_ctrls1.rdQLenPdf::24                     0                       # What read queue length does an incoming req see
system.mem_ctrls1.rdQLenPdf::25                     0                       # What read queue length does an incoming req see
system.mem_ctrls1.rdQLenPdf::26                     0                       # What read queue length does an incoming req see
system.mem_ctrls1.rdQLenPdf::27                     0                       # What read queue length does an incoming req see
system.mem_ctrls1.rdQLenPdf::28                     0                       # What read queue length does an incoming req see
system.mem_ctrls1.rdQLenPdf::29                     0                       # What read queue length does an incoming req see
system.mem_ctrls1.rdQLenPdf::30                     0                       # What read queue length does an incoming req see
system.mem_ctrls1.rdQLenPdf::31                     0                       # What read queue length does an incoming req see
system.mem_ctrls1.wrQLenPdf::0                      1                       # What write queue length does an incoming req see
system.mem_ctrls1.wrQLenPdf::1                      1                       # What write queue length does an incoming req see
system.mem_ctrls1.wrQLenPdf::2                      1                       # What write queue length does an incoming req see
system.mem_ctrls1.wrQLenPdf::3                      1                       # What write queue length does an incoming req see
system.mem_ctrls1.wrQLenPdf::4                      1                       # What write queue length does an incoming req see
system.mem_ctrls1.wrQLenPdf::5                      1                       # What write queue length does an incoming req see
system.mem_ctrls1.wrQLenPdf::6                      1                       # What write queue length does an incoming req see
system.mem_ctrls1.wrQLenPdf::7                      1                       # What write queue length does an incoming req see
system.mem_ctrls1.wrQLenPdf::8                      1                       # What write queue length does an incoming req see
system.mem_ctrls1.wrQLenPdf::9                      1                       # What write queue length does an incoming req see
system.mem_ctrls1.wrQLenPdf::10                     1                       # What write queue length does an incoming req see
system.mem_ctrls1.wrQLenPdf::11                     1                       # What write queue length does an incoming req see
system.mem_ctrls1.wrQLenPdf::12                     1                       # What write queue length does an incoming req see
system.mem_ctrls1.wrQLenPdf::13                     1                       # What write queue length does an incoming req see
system.mem_ctrls1.wrQLenPdf::14                     1                       # What write queue length does an incoming req see
system.mem_ctrls1.wrQLenPdf::15                    71                       # What write queue length does an incoming req see
system.mem_ctrls1.wrQLenPdf::16                    72                       # What write queue length does an incoming req see
system.mem_ctrls1.wrQLenPdf::17                   126                       # What write queue length does an incoming req see
system.mem_ctrls1.wrQLenPdf::18                   127                       # What write queue length does an incoming req see
system.mem_ctrls1.wrQLenPdf::19                   127                       # What write queue length does an incoming req see
system.mem_ctrls1.wrQLenPdf::20                   128                       # What write queue length does an incoming req see
system.mem_ctrls1.wrQLenPdf::21                   127                       # What write queue length does an incoming req see
system.mem_ctrls1.wrQLenPdf::22                   127                       # What write queue length does an incoming req see
system.mem_ctrls1.wrQLenPdf::23                   128                       # What write queue length does an incoming req see
system.mem_ctrls1.wrQLenPdf::24                   127                       # What write queue length does an incoming req see
system.mem_ctrls1.wrQLenPdf::25                   128                       # What write queue length does an incoming req see
system.mem_ctrls1.wrQLenPdf::26                   138                       # What write queue length does an incoming req see
system.mem_ctrls1.wrQLenPdf::27                   198                       # What write queue length does an incoming req see
system.mem_ctrls1.wrQLenPdf::28                   202                       # What write queue length does an incoming req see
system.mem_ctrls1.wrQLenPdf::29                   187                       # What write queue length does an incoming req see
system.mem_ctrls1.wrQLenPdf::30                   208                       # What write queue length does an incoming req see
system.mem_ctrls1.wrQLenPdf::31                   233                       # What write queue length does an incoming req see
system.mem_ctrls1.wrQLenPdf::32                   223                       # What write queue length does an incoming req see
system.mem_ctrls1.wrQLenPdf::33                   107                       # What write queue length does an incoming req see
system.mem_ctrls1.wrQLenPdf::34                    92                       # What write queue length does an incoming req see
system.mem_ctrls1.wrQLenPdf::35                    63                       # What write queue length does an incoming req see
system.mem_ctrls1.wrQLenPdf::36                    54                       # What write queue length does an incoming req see
system.mem_ctrls1.wrQLenPdf::37                    53                       # What write queue length does an incoming req see
system.mem_ctrls1.wrQLenPdf::38                    49                       # What write queue length does an incoming req see
system.mem_ctrls1.wrQLenPdf::39                    51                       # What write queue length does an incoming req see
system.mem_ctrls1.wrQLenPdf::40                    49                       # What write queue length does an incoming req see
system.mem_ctrls1.wrQLenPdf::41                    46                       # What write queue length does an incoming req see
system.mem_ctrls1.wrQLenPdf::42                    42                       # What write queue length does an incoming req see
system.mem_ctrls1.wrQLenPdf::43                    35                       # What write queue length does an incoming req see
system.mem_ctrls1.wrQLenPdf::44                    33                       # What write queue length does an incoming req see
system.mem_ctrls1.wrQLenPdf::45                    30                       # What write queue length does an incoming req see
system.mem_ctrls1.wrQLenPdf::46                    32                       # What write queue length does an incoming req see
system.mem_ctrls1.wrQLenPdf::47                    30                       # What write queue length does an incoming req see
system.mem_ctrls1.wrQLenPdf::48                    33                       # What write queue length does an incoming req see
system.mem_ctrls1.wrQLenPdf::49                    34                       # What write queue length does an incoming req see
system.mem_ctrls1.wrQLenPdf::50                    30                       # What write queue length does an incoming req see
system.mem_ctrls1.wrQLenPdf::51                    21                       # What write queue length does an incoming req see
system.mem_ctrls1.wrQLenPdf::52                    23                       # What write queue length does an incoming req see
system.mem_ctrls1.wrQLenPdf::53                    27                       # What write queue length does an incoming req see
system.mem_ctrls1.wrQLenPdf::54                    31                       # What write queue length does an incoming req see
system.mem_ctrls1.wrQLenPdf::55                    38                       # What write queue length does an incoming req see
system.mem_ctrls1.wrQLenPdf::56                    34                       # What write queue length does an incoming req see
system.mem_ctrls1.wrQLenPdf::57                    38                       # What write queue length does an incoming req see
system.mem_ctrls1.wrQLenPdf::58                    49                       # What write queue length does an incoming req see
system.mem_ctrls1.wrQLenPdf::59                    48                       # What write queue length does an incoming req see
system.mem_ctrls1.wrQLenPdf::60                    56                       # What write queue length does an incoming req see
system.mem_ctrls1.wrQLenPdf::61                    72                       # What write queue length does an incoming req see
system.mem_ctrls1.wrQLenPdf::62                    65                       # What write queue length does an incoming req see
system.mem_ctrls1.wrQLenPdf::63                   894                       # What write queue length does an incoming req see
system.mem_ctrls1.bytesPerActivate::samples        16047                       # Bytes accessed per row activation
system.mem_ctrls1.bytesPerActivate::mean   154.765377                       # Bytes accessed per row activation
system.mem_ctrls1.bytesPerActivate::gmean    99.911979                       # Bytes accessed per row activation
system.mem_ctrls1.bytesPerActivate::stdev   219.806345                       # Bytes accessed per row activation
system.mem_ctrls1.bytesPerActivate::0-127        10739     66.92%     66.92% # Bytes accessed per row activation
system.mem_ctrls1.bytesPerActivate::128-255         3083     19.21%     86.13% # Bytes accessed per row activation
system.mem_ctrls1.bytesPerActivate::256-383          815      5.08%     91.21% # Bytes accessed per row activation
system.mem_ctrls1.bytesPerActivate::384-511          330      2.06%     93.27% # Bytes accessed per row activation
system.mem_ctrls1.bytesPerActivate::512-639          142      0.88%     94.15% # Bytes accessed per row activation
system.mem_ctrls1.bytesPerActivate::640-767           93      0.58%     94.73% # Bytes accessed per row activation
system.mem_ctrls1.bytesPerActivate::768-895           64      0.40%     95.13% # Bytes accessed per row activation
system.mem_ctrls1.bytesPerActivate::896-1023           93      0.58%     95.71% # Bytes accessed per row activation
system.mem_ctrls1.bytesPerActivate::1024-1151          688      4.29%    100.00% # Bytes accessed per row activation
system.mem_ctrls1.bytesPerActivate::total        16047                       # Bytes accessed per row activation
system.mem_ctrls1.rdPerTurnAround::samples          138                       # Reads before turning the bus around for writes
system.mem_ctrls1.rdPerTurnAround::mean    245.239130                       # Reads before turning the bus around for writes
system.mem_ctrls1.rdPerTurnAround::stdev  1915.948350                       # Reads before turning the bus around for writes
system.mem_ctrls1.rdPerTurnAround::0-1023          137     99.28%     99.28% # Reads before turning the bus around for writes
system.mem_ctrls1.rdPerTurnAround::22528-23551            1      0.72%    100.00% # Reads before turning the bus around for writes
system.mem_ctrls1.rdPerTurnAround::total          138                       # Reads before turning the bus around for writes
system.mem_ctrls1.wrPerTurnAround::samples          138                       # Writes before turning the bus around for reads
system.mem_ctrls1.wrPerTurnAround::mean     35.666667                       # Writes before turning the bus around for reads
system.mem_ctrls1.wrPerTurnAround::gmean    24.204141                       # Writes before turning the bus around for reads
system.mem_ctrls1.wrPerTurnAround::stdev    63.504737                       # Writes before turning the bus around for reads
system.mem_ctrls1.wrPerTurnAround::16-23           88     63.77%     63.77% # Writes before turning the bus around for reads
system.mem_ctrls1.wrPerTurnAround::24-31            4      2.90%     66.67% # Writes before turning the bus around for reads
system.mem_ctrls1.wrPerTurnAround::32-39           29     21.01%     87.68% # Writes before turning the bus around for reads
system.mem_ctrls1.wrPerTurnAround::40-47            5      3.62%     91.30% # Writes before turning the bus around for reads
system.mem_ctrls1.wrPerTurnAround::48-55            3      2.17%     93.48% # Writes before turning the bus around for reads
system.mem_ctrls1.wrPerTurnAround::64-71            3      2.17%     95.65% # Writes before turning the bus around for reads
system.mem_ctrls1.wrPerTurnAround::128-135            1      0.72%     96.38% # Writes before turning the bus around for reads
system.mem_ctrls1.wrPerTurnAround::232-239            1      0.72%     97.10% # Writes before turning the bus around for reads
system.mem_ctrls1.wrPerTurnAround::256-263            2      1.45%     98.55% # Writes before turning the bus around for reads
system.mem_ctrls1.wrPerTurnAround::448-455            1      0.72%     99.28% # Writes before turning the bus around for reads
system.mem_ctrls1.wrPerTurnAround::480-487            1      0.72%    100.00% # Writes before turning the bus around for reads
system.mem_ctrls1.wrPerTurnAround::total          138                       # Writes before turning the bus around for reads
system.mem_ctrls1.masterReadBytes::.ruby.dir_cntrl1      2168704                       # Per-master bytes read from memory
system.mem_ctrls1.masterWriteBytes::.ruby.dir_cntrl1       315008                       # Per-master bytes write to memory
system.mem_ctrls1.masterReadRate::.ruby.dir_cntrl1 31661996.091655198485                       # Per-master bytes read from memory rate (Bytes/sec)
system.mem_ctrls1.masterWriteRate::.ruby.dir_cntrl1 4598959.592844445258                       # Per-master bytes write to memory rate (Bytes/sec)
system.mem_ctrls1.masterReadAccesses::.ruby.dir_cntrl1        33898                       # Per-master read serviced memory accesses
system.mem_ctrls1.masterWriteAccesses::.ruby.dir_cntrl1         4951                       # Per-master write serviced memory accesses
system.mem_ctrls1.masterReadTotalLat::.ruby.dir_cntrl1   2680209479                       # Per-master read total memory access latency
system.mem_ctrls1.masterWriteTotalLat::.ruby.dir_cntrl1 901097054507                       # Per-master write total memory access latency
system.mem_ctrls1.masterReadAvgLat::.ruby.dir_cntrl1     79066.89                       # Per-master read average memory access latency
system.mem_ctrls1.masterWriteAvgLat::.ruby.dir_cntrl1 182003040.70                       # Per-master write average memory access latency
system.mem_ctrls1.totQLat                  2044846979                       # Total ticks spent queuing
system.mem_ctrls1.totMemAccLat             2680209479                       # Total ticks spent from burst creation until serviced by the DRAM
system.mem_ctrls1.totBusLat                 169430000                       # Total ticks spent in databus transfers
system.mem_ctrls1.avgQLat                    60344.89                       # Average queueing delay per DRAM burst
system.mem_ctrls1.avgBusLat                   5000.00                       # Average bus latency per DRAM burst
system.mem_ctrls1.avgMemAccLat               79094.89                       # Average memory access latency per DRAM burst
system.mem_ctrls1.avgRdBW                       31.66                       # Average DRAM read bandwidth in MiByte/s
system.mem_ctrls1.avgWrBW                        4.60                       # Average achieved write bandwidth in MiByte/s
system.mem_ctrls1.avgRdBWSys                    31.67                       # Average system read bandwidth in MiByte/s
system.mem_ctrls1.avgWrBWSys                     4.63                       # Average system write bandwidth in MiByte/s
system.mem_ctrls1.peakBW                     12800.00                       # Theoretical peak bandwidth in MiByte/s
system.mem_ctrls1.busUtil                        0.28                       # Data bus utilization in percentage
system.mem_ctrls1.busUtilRead                    0.25                       # Data bus utilization in percentage for reads
system.mem_ctrls1.busUtilWrite                   0.04                       # Data bus utilization in percentage for writes
system.mem_ctrls1.avgRdQLen                      1.05                       # Average read queue length when enqueuing
system.mem_ctrls1.avgWrQLen                     13.95                       # Average write queue length when enqueuing
system.mem_ctrls1.readRowHits                   19079                       # Number of row buffer hits during reads
system.mem_ctrls1.writeRowHits                   3681                       # Number of row buffer hits during writes
system.mem_ctrls1.readRowHitRate                56.30                       # Row buffer hit rate for reads
system.mem_ctrls1.writeRowHitRate               74.35                       # Row buffer hit rate for writes
system.mem_ctrls1.avgGap                   1763103.53                       # Average gap between requests
system.mem_ctrls1.pageHitRate                   58.60                       # Row buffer hit rate, read and write combined
system.mem_ctrls1_0.actEnergy                61146960                       # Energy for activate commands per rank (pJ)
system.mem_ctrls1_0.preEnergy                32496585                       # Energy for precharge commands per rank (pJ)
system.mem_ctrls1_0.readEnergy              128877000                       # Energy for read commands per rank (pJ)
system.mem_ctrls1_0.writeEnergy              13958280                       # Energy for write commands per rank (pJ)
system.mem_ctrls1_0.refreshEnergy        2843939280.000000                       # Energy for refresh commands per rank (pJ)
system.mem_ctrls1_0.actBackEnergy           873328920                       # Energy for active background per rank (pJ)
system.mem_ctrls1_0.preBackEnergy           187104960                       # Energy for precharge background per rank (pJ)
system.mem_ctrls1_0.actPowerDownEnergy     9196689510                       # Energy for active power-down per rank (pJ)
system.mem_ctrls1_0.prePowerDownEnergy     5302574880                       # Energy for precharge power-down per rank (pJ)
system.mem_ctrls1_0.selfRefreshEnergy      8410285080                       # Energy for self refresh per rank (pJ)
system.mem_ctrls1_0.totalEnergy           27051970905                       # Total energy per rank (pJ)
system.mem_ctrls1_0.averagePower           394.945275                       # Core power per rank (mW)
system.mem_ctrls1_0.totalIdleTime         66089033501                       # Total Idle time Per DRAM Rank
system.mem_ctrls1_0.memoryStateTime::IDLE    372329500                       # Time in different power states
system.mem_ctrls1_0.memoryStateTime::REF   1203020000                       # Time in different power states
system.mem_ctrls1_0.memoryStateTime::SREF  32112528750                       # Time in different power states
system.mem_ctrls1_0.memoryStateTime::PRE_PDN  13808890251                       # Time in different power states
system.mem_ctrls1_0.memoryStateTime::ACT    830460249                       # Time in different power states
system.mem_ctrls1_0.memoryStateTime::ACT_PDN  20168252250                       # Time in different power states
system.mem_ctrls1_1.actEnergy                53435760                       # Energy for activate commands per rank (pJ)
system.mem_ctrls1_1.preEnergy                28401780                       # Energy for precharge commands per rank (pJ)
system.mem_ctrls1_1.readEnergy              113069040                       # Energy for read commands per rank (pJ)
system.mem_ctrls1_1.writeEnergy              11734560                       # Energy for write commands per rank (pJ)
system.mem_ctrls1_1.refreshEnergy        2832261120.000000                       # Energy for refresh commands per rank (pJ)
system.mem_ctrls1_1.actBackEnergy           822140070                       # Energy for active background per rank (pJ)
system.mem_ctrls1_1.preBackEnergy           197879520                       # Energy for precharge background per rank (pJ)
system.mem_ctrls1_1.actPowerDownEnergy     8890095630                       # Energy for active power-down per rank (pJ)
system.mem_ctrls1_1.prePowerDownEnergy     5550858720                       # Energy for precharge power-down per rank (pJ)
system.mem_ctrls1_1.selfRefreshEnergy      8508489180                       # Energy for self refresh per rank (pJ)
system.mem_ctrls1_1.totalEnergy           27010170900                       # Total energy per rank (pJ)
system.mem_ctrls1_1.averagePower           394.335016                       # Core power per rank (mW)
system.mem_ctrls1_1.totalIdleTime         66168305002                       # Total Idle time Per DRAM Rank
system.mem_ctrls1_1.memoryStateTime::IDLE    406897000                       # Time in different power states
system.mem_ctrls1_1.memoryStateTime::REF   1198080000                       # Time in different power states
system.mem_ctrls1_1.memoryStateTime::SREF  32221972750                       # Time in different power states
system.mem_ctrls1_1.memoryStateTime::PRE_PDN  14455306001                       # Time in different power states
system.mem_ctrls1_1.memoryStateTime::ACT    717430998                       # Time in different power states
system.mem_ctrls1_1.memoryStateTime::ACT_PDN  19495794251                       # Time in different power states
system.pwrStateResidencyTicks::UNDEFINED 2576859644500                       # Cumulative time (in ticks) in various power states
system.cpu_voltage_domain.voltage                   1                       # Voltage in Volts
system.cpu_clk_domain.clock                       500                       # Clock period in ticks
system.cpu0.dtb.walker.pwrStateResidencyTicks::UNDEFINED 2576859644500                       # Cumulative time (in ticks) in various power states
system.cpu0.dtb.rdAccesses                          7                       # TLB accesses on read requests
system.cpu0.dtb.wrAccesses                          0                       # TLB accesses on write requests
system.cpu0.dtb.rdMisses                            0                       # TLB misses on read requests
system.cpu0.dtb.wrMisses                            0                       # TLB misses on write requests
system.cpu0.apic_clk_domain.clock                8000                       # Clock period in ticks
system.cpu0.interrupts.pwrStateResidencyTicks::UNDEFINED 2576859644500                       # Cumulative time (in ticks) in various power states
system.cpu0.itb.walker.pwrStateResidencyTicks::UNDEFINED 2576859644500                       # Cumulative time (in ticks) in various power states
system.cpu0.itb.rdAccesses                          0                       # TLB accesses on read requests
system.cpu0.itb.wrAccesses                          8                       # TLB accesses on write requests
system.cpu0.itb.rdMisses                            0                       # TLB misses on read requests
system.cpu0.itb.wrMisses                            0                       # TLB misses on write requests
system.cpu0.numPwrStateTransitions                  1                       # Number of power state transitions
system.cpu0.pwrStateResidencyTicks::ON          11000                       # Cumulative time (in ticks) in various power states
system.cpu0.pwrStateResidencyTicks::OFF   68495481000                       # Cumulative time (in ticks) in various power states
system.cpu0.numCycles                              22                       # number of cpu cycles simulated
system.cpu0.numWorkItemsStarted                     0                       # number of work items this cpu started
system.cpu0.numWorkItemsCompleted                   0                       # number of work items this cpu completed
system.cpu0.kern.inst.arm                           0                       # number of arm instructions executed
system.cpu0.kern.inst.quiesce                       0                       # number of quiesce instructions executed
system.cpu0.committedInsts                          8                       # Number of instructions committed
system.cpu0.committedOps                           22                       # Number of ops (including micro ops) committed
system.cpu0.num_int_alu_accesses                   22                       # Number of integer alu accesses
system.cpu0.num_fp_alu_accesses                     0                       # Number of float alu accesses
system.cpu0.num_vec_alu_accesses                    0                       # Number of vector alu accesses
system.cpu0.num_func_calls                          1                       # number of times a function call or return occured
system.cpu0.num_conditional_control_insts            0                       # number of instructions that are conditional controls
system.cpu0.num_int_insts                          22                       # number of integer instructions
system.cpu0.num_fp_insts                            0                       # number of float instructions
system.cpu0.num_vec_insts                           0                       # number of vector instructions
system.cpu0.num_int_register_reads                 49                       # number of times the integer registers were read
system.cpu0.num_int_register_writes                21                       # number of times the integer registers were written
system.cpu0.num_fp_register_reads                   0                       # number of times the floating registers were read
system.cpu0.num_fp_register_writes                  0                       # number of times the floating registers were written
system.cpu0.num_vec_register_reads                  0                       # number of times the vector registers were read
system.cpu0.num_vec_register_writes                 0                       # number of times the vector registers were written
system.cpu0.num_mem_refs                            7                       # number of memory refs
system.cpu0.num_load_insts                          7                       # Number of load instructions
system.cpu0.num_store_insts                         0                       # Number of store instructions
system.cpu0.num_idle_cycles                         0                       # Number of idle cycles
system.cpu0.num_busy_cycles                        22                       # Number of busy cycles
system.cpu0.not_idle_fraction                       1                       # Percentage of non-idle cycles
system.cpu0.idle_fraction                           0                       # Percentage of idle cycles
system.cpu0.Branches                                1                       # Number of branches fetched
system.cpu0.op_class::No_OpClass                    0      0.00%      0.00% # Class of executed instruction
[...]
system.ruby.L1Cache_Controller.I.Store   |          38     49.35%     49.35% |          39     50.65%    100.00%
system.ruby.L1Cache_Controller.I.Store::total           77                      
system.ruby.L1Cache_Controller.I.L1_Replacement |         300     59.64%     59.64% |         203     40.36%    100.00%
system.ruby.L1Cache_Controller.I.L1_Replacement::total          503                      
system.ruby.L1Cache_Controller.S.Load    |      193311     44.09%     44.09% |      245178     55.91%    100.00%
system.ruby.L1Cache_Controller.S.Load::total       438489                      
system.ruby.L1Cache_Controller.S.Ifetch  |     2003332     52.98%     52.98% |     1778116     47.02%    100.00%
system.ruby.L1Cache_Controller.S.Ifetch::total      3781448                      
system.ruby.L1Cache_Controller.S.Store   |         303     44.49%     44.49% |         378     55.51%    100.00%
system.ruby.L1Cache_Controller.S.Store::total          681                      
system.ruby.L1Cache_Controller.S.Inv     |         349     58.85%     58.85% |         244     41.15%    100.00%
system.ruby.L1Cache_Controller.S.Inv::total          593                      
system.ruby.L1Cache_Controller.S.L1_Replacement |       86328     31.06%     31.06% |      191604     68.94%    100.00%
system.ruby.L1Cache_Controller.S.L1_Replacement::total       277932                      
system.ruby.L1Cache_Controller.E.Load    |      907384     48.43%     48.43% |      966133     51.57%    100.00%
system.ruby.L1Cache_Controller.E.Load::total      1873517                      
system.ruby.L1Cache_Controller.E.Store   |        9913     33.39%     33.39% |       19775     66.61%    100.00%
system.ruby.L1Cache_Controller.E.Store::total        29688                      
system.ruby.L1Cache_Controller.E.L1_Replacement |       32716     31.73%     31.73% |       70393     68.27%    100.00%
system.ruby.L1Cache_Controller.E.L1_Replacement::total       103109                      
system.ruby.L1Cache_Controller.E.Fwd_GETX |          31     58.49%     58.49% |          22     41.51%    100.00%
system.ruby.L1Cache_Controller.E.Fwd_GETX::total           53                      
system.ruby.L1Cache_Controller.E.Fwd_GETS |         474     60.69%     60.69% |         307     39.31%    100.00%
system.ruby.L1Cache_Controller.E.Fwd_GETS::total          781                      
system.ruby.L1Cache_Controller.M.Load    |     1609843     50.95%     50.95% |     1549986     49.05%    100.00%
system.ruby.L1Cache_Controller.M.Load::total      3159829                      
system.ruby.L1Cache_Controller.M.Store   |     1418068     50.87%     50.87% |     1369795     49.13%    100.00%
system.ruby.L1Cache_Controller.M.Store::total      2787863                      
system.ruby.L1Cache_Controller.M.Inv     |           1      5.56%      5.56% |          17     94.44%    100.00%
system.ruby.L1Cache_Controller.M.Inv::total           18                      
system.ruby.L1Cache_Controller.M.L1_Replacement |       22893     27.65%     27.65% |       59908     72.35%    100.00%
system.ruby.L1Cache_Controller.M.L1_Replacement::total        82801                      
system.ruby.L1Cache_Controller.M.Fwd_GETX |          79     54.48%     54.48% |          66     45.52%    100.00%
system.ruby.L1Cache_Controller.M.Fwd_GETX::total          145                      
system.ruby.L1Cache_Controller.M.Fwd_GETS |         380     56.05%     56.05% |         298     43.95%    100.00%
system.ruby.L1Cache_Controller.M.Fwd_GETS::total          678                      
system.ruby.L1Cache_Controller.IS.Data_Exclusive |       35293     33.63%     33.63% |       69655     66.37%    100.00%
system.ruby.L1Cache_Controller.IS.Data_Exclusive::total       104948                      
system.ruby.L1Cache_Controller.IS.DataS_fromL1 |         605     42.04%     42.04% |         834     57.96%    100.00%
system.ruby.L1Cache_Controller.IS.DataS_fromL1::total         1439                      
system.ruby.L1Cache_Controller.IS.Data_all_Acks |       79454     31.60%     31.60% |      171979     68.40%    100.00%
system.ruby.L1Cache_Controller.IS.Data_all_Acks::total       251433                      
system.ruby.L1Cache_Controller.IS.Data_Exclusive_M |        8173     30.96%     30.96% |       18223     69.04%    100.00%
system.ruby.L1Cache_Controller.IS.Data_Exclusive_M::total        26396                      
system.ruby.L1Cache_Controller.IS.Data_all_Acks_M |        6589     34.31%     34.31% |       12618     65.69%    100.00%
system.ruby.L1Cache_Controller.IS.Data_all_Acks_M::total        19207                      
system.ruby.L1Cache_Controller.IS.Data_Exclusive_S |           0      0.00%      0.00% |        2835    100.00%    100.00%
system.ruby.L1Cache_Controller.IS.Data_Exclusive_S::total         2835                      
system.ruby.L1Cache_Controller.IS.DataS_fromL1_S |           0      0.00%      0.00% |          20    100.00%    100.00%
system.ruby.L1Cache_Controller.IS.DataS_fromL1_S::total           20                      
system.ruby.L1Cache_Controller.IS.Data_all_Acks_S |           0      0.00%      0.00% |        6737    100.00%    100.00%
system.ruby.L1Cache_Controller.IS.Data_all_Acks_S::total         6737                      
system.ruby.L1Cache_Controller.IM.Data   |          63     68.48%     68.48% |          29     31.52%    100.00%
system.ruby.L1Cache_Controller.IM.Data::total           92                      
system.ruby.L1Cache_Controller.IM.Data_all_Acks |       13244     24.71%     24.71% |       40346     75.29%    100.00%
system.ruby.L1Cache_Controller.IM.Data_all_Acks::total        53590                      
system.ruby.L1Cache_Controller.SM.Ack    |         303     44.49%     44.49% |         378     55.51%    100.00%
system.ruby.L1Cache_Controller.SM.Ack::total          681                      
system.ruby.L1Cache_Controller.SM.Ack_all |         366     47.35%     47.35% |         407     52.65%    100.00%
system.ruby.L1Cache_Controller.SM.Ack_all::total          773                      
system.ruby.L1Cache_Controller.M_I.Load  |          57     85.07%     85.07% |          10     14.93%    100.00%
system.ruby.L1Cache_Controller.M_I.Load::total           67                      
system.ruby.L1Cache_Controller.M_I.Ifetch |           5     62.50%     62.50% |           3     37.50%    100.00%
system.ruby.L1Cache_Controller.M_I.Ifetch::total            8                      
system.ruby.L1Cache_Controller.M_I.Store |           1     50.00%     50.00% |           1     50.00%    100.00%
system.ruby.L1Cache_Controller.M_I.Store::total            2                      
system.ruby.L1Cache_Controller.M_I.WB_Ack |       55609     29.91%     29.91% |      130300     70.09%    100.00%
system.ruby.L1Cache_Controller.M_I.WB_Ack::total       185909                      
system.ruby.L1Cache_Controller.SB.CALL_BACK |           0      0.00%      0.00% |        2835    100.00%    100.00%
system.ruby.L1Cache_Controller.SB.CALL_BACK::total         2835                      
system.ruby.L1Cache_Controller.SB_S.CALL_BACK |           0      0.00%      0.00% |        6757    100.00%    100.00%
system.ruby.L1Cache_Controller.SB_S.CALL_BACK::total         6757                      
system.ruby.L1Cache_Controller.SB_SS.Inv |         382     24.13%     24.13% |        1201     75.87%    100.00%
system.ruby.L1Cache_Controller.SB_SS.Inv::total         1583                      
system.ruby.L1Cache_Controller.SB_SS.CALL_BACK |     2196642     52.05%     52.05% |     2023293     47.95%    100.00%
system.ruby.L1Cache_Controller.SB_SS.CALL_BACK::total      4219935                      
system.ruby.L1Cache_Controller.SB_EE.Fwd_GETS |         141    100.00%    100.00% |           0      0.00%    100.00%
system.ruby.L1Cache_Controller.SB_EE.Fwd_GETS::total          141                      
system.ruby.L1Cache_Controller.SB_EE.CALL_BACK |      907384     48.43%     48.43% |      966132     51.57%    100.00%
system.ruby.L1Cache_Controller.SB_EE.CALL_BACK::total      1873516                      
system.ruby.L1Cache_Controller.SB_MM.Fwd_GETX |        1579     61.27%     61.27% |         998     38.73%    100.00%
system.ruby.L1Cache_Controller.SB_MM.Fwd_GETX::total         2577                      
system.ruby.L1Cache_Controller.SB_MM.Fwd_GETS |         547     44.08%     44.08% |         694     55.92%    100.00%
system.ruby.L1Cache_Controller.SB_MM.Fwd_GETS::total         1241                      
system.ruby.L1Cache_Controller.SB_MM.CALL_BACK |     1609843     50.95%     50.95% |     1549986     49.05%    100.00%
system.ruby.L1Cache_Controller.SB_MM.CALL_BACK::total      3159829                      
system.ruby.L2Cache_Controller.L1_GET_INSTR |      123586     49.63%     49.63% |      125426     50.37%    100.00%
system.ruby.L2Cache_Controller.L1_GET_INSTR::total       249012                      
system.ruby.L2Cache_Controller.L1_GETS   |       91808     55.97%     55.97% |       72219     44.03%    100.00%
system.ruby.L2Cache_Controller.L1_GETS::total       164027                      
system.ruby.L2Cache_Controller.L1_GETX   |       27195     50.66%     50.66% |       26487     49.34%    100.00%
system.ruby.L2Cache_Controller.L1_GETX::total        53682                      
system.ruby.L2Cache_Controller.L1_UPGRADE |         340     49.93%     49.93% |         341     50.07%    100.00%
system.ruby.L2Cache_Controller.L1_UPGRADE::total          681                      
system.ruby.L2Cache_Controller.L1_PUTX   |       98974     53.24%     53.24% |       86935     46.76%    100.00%
system.ruby.L2Cache_Controller.L1_PUTX::total       185909                      
system.ruby.L2Cache_Controller.L2_Replacement |        1439     51.06%     51.06% |        1379     48.94%    100.00%
system.ruby.L2Cache_Controller.L2_Replacement::total         2818                      
system.ruby.L2Cache_Controller.L2_Replacement_clean |        1768     51.47%     51.47% |        1667     48.53%    100.00%
system.ruby.L2Cache_Controller.L2_Replacement_clean::total         3435                      
system.ruby.L2Cache_Controller.Mem_Data  |       34022     50.16%     50.16% |       33800     49.84%    100.00%
system.ruby.L2Cache_Controller.Mem_Data::total        67822                      
system.ruby.L2Cache_Controller.Mem_Ack   |        4620     51.05%     51.05% |        4430     48.95%    100.00%
system.ruby.L2Cache_Controller.Mem_Ack::total         9050                      
system.ruby.L2Cache_Controller.WB_Data   |         358     51.44%     51.44% |         338     48.56%    100.00%
system.ruby.L2Cache_Controller.WB_Data::total          696                      
system.ruby.L2Cache_Controller.WB_Data_clean |         399     51.09%     51.09% |         382     48.91%    100.00%
system.ruby.L2Cache_Controller.WB_Data_clean::total          781                      
system.ruby.L2Cache_Controller.Ack       |         136     55.74%     55.74% |         108     44.26%    100.00%
system.ruby.L2Cache_Controller.Ack::total          244                      
system.ruby.L2Cache_Controller.Ack_all   |         586     52.00%     52.00% |         541     48.00%    100.00%
system.ruby.L2Cache_Controller.Ack_all::total         1127                      
system.ruby.L2Cache_Controller.Unblock   |         742     50.86%     50.86% |         717     49.14%    100.00%
system.ruby.L2Cache_Controller.Unblock::total         1459                      
system.ruby.L2Cache_Controller.Exclusive_Unblock |      100348     53.22%     53.22% |       88194     46.78%    100.00%
system.ruby.L2Cache_Controller.Exclusive_Unblock::total       188542                      
system.ruby.L2Cache_Controller.MEM_Inv   |        2826     50.52%     50.52% |        2768     49.48%    100.00%
system.ruby.L2Cache_Controller.MEM_Inv::total         5594                      
system.ruby.L2Cache_Controller.NP.L1_GET_INSTR |        9582     49.89%     49.89% |        9625     50.11%    100.00%
system.ruby.L2Cache_Controller.NP.L1_GET_INSTR::total        19207                      
system.ruby.L2Cache_Controller.NP.L1_GETS |       13390     50.73%     50.73% |       13006     49.27%    100.00%
system.ruby.L2Cache_Controller.NP.L1_GETS::total        26396                      
system.ruby.L2Cache_Controller.NP.L1_GETX |       11050     49.73%     49.73% |       11169     50.27%    100.00%
system.ruby.L2Cache_Controller.NP.L1_GETX::total        22219                      
system.ruby.L2Cache_Controller.SS.L1_GET_INSTR |      113982     49.61%     49.61% |      115780     50.39%    100.00%
system.ruby.L2Cache_Controller.SS.L1_GET_INSTR::total       229762                      
system.ruby.L2Cache_Controller.SS.L1_GETS |       18231     64.27%     64.27% |       10134     35.73%    100.00%
system.ruby.L2Cache_Controller.SS.L1_GETS::total        28365                      
system.ruby.L2Cache_Controller.SS.L1_GETX |          57     60.64%     60.64% |          37     39.36%    100.00%
system.ruby.L2Cache_Controller.SS.L1_GETX::total           94                      
system.ruby.L2Cache_Controller.SS.L1_UPGRADE |         340     49.93%     49.93% |         341     50.07%    100.00%
system.ruby.L2Cache_Controller.SS.L1_UPGRADE::total          681                      
system.ruby.L2Cache_Controller.SS.L2_Replacement_clean |         586     52.00%     52.00% |         541     48.00%    100.00%
system.ruby.L2Cache_Controller.SS.L2_Replacement_clean::total         1127                      
system.ruby.L2Cache_Controller.M.L1_GET_INSTR |          22     51.16%     51.16% |          21     48.84%    100.00%
system.ruby.L2Cache_Controller.M.L1_GET_INSTR::total           43                      
system.ruby.L2Cache_Controller.M.L1_GETS |       59423     55.13%     55.13% |       48360     44.87%    100.00%
system.ruby.L2Cache_Controller.M.L1_GETS::total       107783                      
system.ruby.L2Cache_Controller.M.L1_GETX |       15954     51.18%     51.18% |       15217     48.82%    100.00%
system.ruby.L2Cache_Controller.M.L1_GETX::total        31171                      
system.ruby.L2Cache_Controller.M.L2_Replacement |        1439     51.06%     51.06% |        1379     48.94%    100.00%
system.ruby.L2Cache_Controller.M.L2_Replacement::total         2818                      
system.ruby.L2Cache_Controller.M.L2_Replacement_clean |        1182     51.21%     51.21% |        1126     48.79%    100.00%
system.ruby.L2Cache_Controller.M.L2_Replacement_clean::total         2308                      
system.ruby.L2Cache_Controller.M.MEM_Inv |        1398     50.31%     50.31% |        1381     49.69%    100.00%
system.ruby.L2Cache_Controller.M.MEM_Inv::total         2779                      
system.ruby.L2Cache_Controller.MT.L1_GETS |         742     50.86%     50.86% |         717     49.14%    100.00%
system.ruby.L2Cache_Controller.MT.L1_GETS::total         1459                      
system.ruby.L2Cache_Controller.MT.L1_GETX |         134     67.68%     67.68% |          64     32.32%    100.00%
system.ruby.L2Cache_Controller.MT.L1_GETX::total          198                      
system.ruby.L2Cache_Controller.MT.L1_PUTX |       98974     53.24%     53.24% |       86935     46.76%    100.00%
system.ruby.L2Cache_Controller.MT.L1_PUTX::total       185909                      
system.ruby.L2Cache_Controller.MT.MEM_Inv |          15     83.33%     83.33% |           3     16.67%    100.00%
system.ruby.L2Cache_Controller.MT.MEM_Inv::total           18                      
system.ruby.L2Cache_Controller.M_I.Mem_Ack |        4620     51.05%     51.05% |        4430     48.95%    100.00%
system.ruby.L2Cache_Controller.M_I.Mem_Ack::total         9050                      
system.ruby.L2Cache_Controller.M_I.MEM_Inv |        1398     50.31%     50.31% |        1381     49.69%    100.00%
system.ruby.L2Cache_Controller.M_I.MEM_Inv::total         2779                      
system.ruby.L2Cache_Controller.MT_I.WB_Data |          15     83.33%     83.33% |           3     16.67%    100.00%
system.ruby.L2Cache_Controller.MT_I.WB_Data::total           18                      
system.ruby.L2Cache_Controller.MT_I.MEM_Inv |          15     83.33%     83.33% |           3     16.67%    100.00%
system.ruby.L2Cache_Controller.MT_I.MEM_Inv::total           18                      
system.ruby.L2Cache_Controller.I_I.Ack   |         136     55.74%     55.74% |         108     44.26%    100.00%
system.ruby.L2Cache_Controller.I_I.Ack::total          244                      
system.ruby.L2Cache_Controller.I_I.Ack_all |         586     52.00%     52.00% |         541     48.00%    100.00%
system.ruby.L2Cache_Controller.I_I.Ack_all::total         1127                      
system.ruby.L2Cache_Controller.ISS.Mem_Data |       13390     50.73%     50.73% |       13006     49.27%    100.00%
system.ruby.L2Cache_Controller.ISS.Mem_Data::total        26396                      
system.ruby.L2Cache_Controller.IS.Mem_Data |        9582     49.89%     49.89% |        9625     50.11%    100.00%
system.ruby.L2Cache_Controller.IS.Mem_Data::total        19207                      
system.ruby.L2Cache_Controller.IM.Mem_Data |       11050     49.73%     49.73% |       11169     50.27%    100.00%
system.ruby.L2Cache_Controller.IM.Mem_Data::total        22219                      
system.ruby.L2Cache_Controller.SS_MB.L1_GETS |           5     83.33%     83.33% |           1     16.67%    100.00%
system.ruby.L2Cache_Controller.SS_MB.L1_GETS::total            6                      
system.ruby.L2Cache_Controller.SS_MB.Exclusive_Unblock |         397     51.23%     51.23% |         378     48.77%    100.00%
system.ruby.L2Cache_Controller.SS_MB.Exclusive_Unblock::total          775                      
system.ruby.L2Cache_Controller.MT_MB.L1_GETS |          17     94.44%     94.44% |           1      5.56%    100.00%
system.ruby.L2Cache_Controller.MT_MB.L1_GETS::total           18                      
system.ruby.L2Cache_Controller.MT_MB.Exclusive_Unblock |       99951     53.23%     53.23% |       87816     46.77%    100.00%
system.ruby.L2Cache_Controller.MT_MB.Exclusive_Unblock::total       187767                      
system.ruby.L2Cache_Controller.MT_IIB.WB_Data |         342     50.59%     50.59% |         334     49.41%    100.00%
system.ruby.L2Cache_Controller.MT_IIB.WB_Data::total          676                      
system.ruby.L2Cache_Controller.MT_IIB.WB_Data_clean |         399     51.15%     51.15% |         381     48.85%    100.00%
system.ruby.L2Cache_Controller.MT_IIB.WB_Data_clean::total          780                      
system.ruby.L2Cache_Controller.MT_IIB.Unblock |           1     33.33%     33.33% |           2     66.67%    100.00%
system.ruby.L2Cache_Controller.MT_IIB.Unblock::total            3                      
system.ruby.L2Cache_Controller.MT_IB.WB_Data |           1     50.00%     50.00% |           1     50.00%    100.00%
system.ruby.L2Cache_Controller.MT_IB.WB_Data::total            2                      
system.ruby.L2Cache_Controller.MT_IB.WB_Data_clean |           0      0.00%      0.00% |           1    100.00%    100.00%
system.ruby.L2Cache_Controller.MT_IB.WB_Data_clean::total            1                      
system.ruby.L2Cache_Controller.MT_SB.Unblock |         741     50.89%     50.89% |         715     49.11%    100.00%
system.ruby.L2Cache_Controller.MT_SB.Unblock::total         1456                      
system.switch_cpus0.kern.inst.arm                   0                       # number of arm instructions executed
system.switch_cpus0.kern.inst.quiesce               0                       # number of quiesce instructions executed
system.switch_cpus1.kern.inst.arm                   0                       # number of arm instructions executed
system.switch_cpus1.kern.inst.quiesce               0                       # number of quiesce instructions executed

---------- End Simulation Statistics   ----------
