
---------- Begin Simulation Statistics ----------
sim_seconds                                  0.000167                       # Number of seconds simulated
sim_ticks                                   167237000                       # Number of ticks simulated
final_tick                               2508531389500                       # Number of ticks from beginning of simulation (restored from checkpoints and never reset)
sim_freq                                 1000000000000                       # Frequency of simulated ticks
host_inst_rate                                  55849                       # Simulator instruction rate (inst/s)
host_op_rate                                   103942                       # Simulator op (including micro ops) rate (op/s)
host_tick_rate                               30862481                       # Simulator tick rate (ticks/s)
host_mem_usage                                3047664                       # Number of bytes of host memory used
host_seconds                                     5.42                       # Real time elapsed on the host
sim_insts                                      302634                       # Number of instructions simulated
sim_ops                                        563236                       # Number of ops (including micro ops) simulated
system.voltage_domain.voltage                       1                       # Voltage in Volts
system.clk_domain.clock                          1000                       # Clock period in ticks
system.mem_ctrls0.pwrStateResidencyTicks::UNDEFINED 2508531389500                       # Cumulative time (in ticks) in various power states
system.mem_ctrls0.bytes_read::.ruby.dir_cntrl0       113856                       # Number of bytes read from this memory
system.mem_ctrls0.bytes_read::total            113856                       # Number of bytes read from this memory
system.mem_ctrls0.num_reads::.ruby.dir_cntrl0         1779                       # Number of read requests responded to by this memory
system.mem_ctrls0.num_reads::total               1779                       # Number of read requests responded to by this memory
system.mem_ctrls0.bw_read::.ruby.dir_cntrl0    680806281                       # Total read bandwidth from this memory (bytes/s)
system.mem_ctrls0.bw_read::total            680806281                       # Total read bandwidth from this memory (bytes/s)
system.mem_ctrls0.bw_total::.ruby.dir_cntrl0    680806281                       # Total bandwidth to/from this memory (bytes/s)
system.mem_ctrls0.bw_total::total           680806281                       # Total bandwidth to/from this memory (bytes/s)
system.mem_ctrls0.avgPriority_.ruby.dir_cntrl0::samples      1779.00                       # Average QoS priority value for accepted requests
system.mem_ctrls0.priorityMinLatency     0.000000018750                       # per QoS priority minimum request to response latency (s)
system.mem_ctrls0.priorityMaxLatency     0.000000606250                       # per QoS priority maximum request to response latency (s)
system.mem_ctrls0.numReadWriteTurnArounds            0                       # Number of turnarounds from READ to WRITE
system.mem_ctrls0.numWriteReadTurnArounds            0                       # Number of turnarounds from WRITE to READ
system.mem_ctrls0.numStayReadState               3442                       # Number of times bus staying in READ state
system.mem_ctrls0.numStayWriteState                 0                       # Number of times bus staying in WRITE state
system.mem_ctrls0.readReqs                       1779                       # Number of read requests accepted
system.mem_ctrls0.writeReqs                         0                       # Number of write requests accepted
system.mem_ctrls0.readBursts                     1779                       # Number of DRAM read bursts, including those serviced by the write queue
system.mem_ctrls0.writeBursts                       0                       # Number of DRAM write bursts, including those merged in the write queue
system.mem_ctrls0.bytesReadDRAM                113856                       # Total number of bytes read from DRAM
system.mem_ctrls0.bytesReadWrQ                      0                       # Total number of bytes read from write queue
system.mem_ctrls0.bytesWritten                      0                       # Total number of bytes written to DRAM
system.mem_ctrls0.bytesReadSys                 113856                       # Total read bytes from the system interface side
system.mem_ctrls0.bytesWrittenSys                   0                       # Total written bytes from the system interface side
system.mem_ctrls0.servicedByWrQ                     0                       # Number of DRAM read bursts serviced by the write queue
system.mem_ctrls0.mergedWrBursts                    0                       # Number of DRAM write bursts merged with an existing one
system.mem_ctrls0.neitherReadNorWriteReqs            0                       # Number of requests that are neither read nor write
system.mem_ctrls0.perBankRdBursts::0              129                       # Per bank write bursts
system.mem_ctrls0.perBankRdBursts::1              132                       # Per bank write bursts
system.mem_ctrls0.perBankRdBursts::2               82                       # Per bank write bursts
system.mem_ctrls0.perBankRdBursts::3              140                       # Per bank write bursts
system.mem_ctrls0.perBankRdBursts::4              102                       # Per bank write bursts
system.mem_ctrls0.perBankRdBursts::5               76                       # Per bank write bursts
system.mem_ctrls0.perBankRdBursts::6              106                       # Per bank write bursts
system.mem_ctrls0.perBankRdBursts::7              157                       # Per bank write bursts
system.mem_ctrls0.perBankRdBursts::8              106                       # Per bank write bursts
system.mem_ctrls0.perBankRdBursts::9               83                       # Per bank write bursts
system.mem_ctrls0.perBankRdBursts::10             164                       # Per bank write bursts
system.mem_ctrls0.perBankRdBursts::11             123                       # Per bank write bursts
system.mem_ctrls0.perBankRdBursts::12             102                       # Per bank write bursts
system.mem_ctrls0.perBankRdBursts::13             107                       # Per bank write bursts
system.mem_ctrls0.perBankRdBursts::14              54                       # Per bank write bursts
system.mem_ctrls0.perBankRdBursts::15             116                       # Per bank write bursts
system.mem_ctrls0.perBankWrBursts::0                0                       # Per bank write bursts
system.mem_ctrls0.perBankWrBursts::1                0                       # Per bank write bursts
system.mem_ctrls0.perBankWrBursts::2                0                       # Per bank write bursts
system.mem_ctrls0.perBankWrBursts::3                0                       # Per bank write bursts
system.mem_ctrls0.perBankWrBursts::4                0                       # Per bank write bursts
system.mem_ctrls0.perBankWrBursts::5                0                       # Per bank write bursts
system.mem_ctrls0.perBankWrBursts::6                0                       # Per bank write bursts
system.mem_ctrls0.perBankWrBursts::7                0                       # Per bank write bursts
system.mem_ctrls0.perBankWrBursts::8                0                       # Per bank write bursts
system.mem_ctrls0.perBankWrBursts::9                0                       # Per bank write bursts
system.mem_ctrls0.perBankWrBursts::10               0                       # Per bank write bursts
system.mem_ctrls0.perBankWrBursts::11               0                       # Per bank write bursts
system.mem_ctrls0.perBankWrBursts::12               0                       # Per bank write bursts
system.mem_ctrls0.perBankWrBursts::13               0                       # Per bank write bursts
system.mem_ctrls0.perBankWrBursts::14               0                       # Per bank write bursts
system.mem_ctrls0.perBankWrBursts::15               0                       # Per bank write bursts
system.mem_ctrls0.numRdRetry                        0                       # Number of times read queue was full causing retry
system.mem_ctrls0.numWrRetry                        0                       # Number of times write queue was full causing retry
system.mem_ctrls0.totGap                    167172500                       # Total gap between requests
system.mem_ctrls0.readPktSize::0                    0                       # Read request sizes (log2)
system.mem_ctrls0.readPktSize::1                    0                       # Read request sizes (log2)
system.mem_ctrls0.readPktSize::2                    0                       # Read request sizes (log2)
system.mem_ctrls0.readPktSize::3                    0                       # Read request sizes (log2)
system.mem_ctrls0.readPktSize::4                    0                       # Read request sizes (log2)
system.mem_ctrls0.readPktSize::5                    0                       # Read request sizes (log2)
system.mem_ctrls0.readPktSize::6                 1779                       # Read request sizes (log2)
system.mem_ctrls0.writePktSize::0                   0                       # Write request sizes (log2)
system.mem_ctrls0.writePktSize::1                   0                       # Write request sizes (log2)
system.mem_ctrls0.writePktSize::2                   0                       # Write request sizes (log2)
system.mem_ctrls0.writePktSize::3                   0                       # Write request sizes (log2)
system.mem_ctrls0.writePktSize::4                   0                       # Write request sizes (log2)
system.mem_ctrls0.writePktSize::5                   0                       # Write request sizes (log2)
system.mem_ctrls0.writePktSize::6                   0                       # Write request sizes (log2)
system.mem_ctrls0.rdQLenPdf::0                   1160                       # What read queue length does an incoming req see
system.mem_ctrls0.rdQLenPdf::1                    441                       # What read queue length does an incoming req see
system.mem_ctrls0.rdQLenPdf::2                    130                       # What read queue length does an incoming req see
system.mem_ctrls0.rdQLenPdf::3                     29                       # What read queue length does an incoming req see
system.mem_ctrls0.rdQLenPdf::4                     10                       # What read queue length does an incoming req see
system.mem_ctrls0.rdQLenPdf::5                      3                       # What read queue length does an incoming req see
system.mem_ctrls0.rdQLenPdf::6                      3                       # What read queue length does an incoming req see
system.mem_ctrls0.rdQLenPdf::7                      3                       # What read queue length does an incoming req see
system.mem_ctrls0.rdQLenPdf::8                      0                       # What read queue length does an incoming req see
system.mem_ctrls0.rdQLenPdf::9                      0                       # What read queue length does an incoming req see
system.mem_ctrls0.rdQLenPdf::10                     0                       # What read queue length does an incoming req see
system.mem_ctrls0.rdQLenPdf::11                     0                       # What read queue length does an incoming req see
system.mem_ctrls0.rdQLenPdf::12                     0                       # What read queue length does an incoming req see
system.mem_ctrls0.rdQLenPdf::13                     0                       # What read queue length does an incoming req see
system.mem_ctrls0.rdQLenPdf::14                     0                       # What read queue length does an incoming req see
system.mem_ctrls0.rdQLenPdf::15                     0                       # What read queue length does an incoming req see
system.mem_ctrls0.rdQLenPdf::16                     0                       # What read queue length does an incoming req see
system.mem_ctrls0.rdQLenPdf::17                     0                       # What read queue length does an incoming req see
system.mem_ctrls0.rdQLenPdf::18                     0                       # What read queue length does an incoming req see
system.mem_ctrls0.rdQLenPdf::19                     0                       # What read queue length does an incoming req see
system.mem_ctrls0.rdQLenPdf::20                     0                       # What read queue length does an incoming req see
system.mem_ctrls0.rdQLenPdf::21                     0                       # What read queue length does an incoming req see
system.mem_ctrls0.rdQLenPdf::22                     0                       # What read queue length does an incoming req see
system.mem_ctrls0.rdQLenPdf::23                     0                       # What read queue length does an incoming req see
system.mem_ctrls0.rdQLenPdf::24                     0                       # What read queue length does an incoming req see
system.mem_ctrls0.rdQLenPdf::25                     0                       # What read queue length does an incoming req see
system.mem_ctrls0.rdQLenPdf::26                     0                       # What read queue length does an incoming req see
system.mem_ctrls0.rdQLenPdf::27                     0                       # What read queue length does an incoming req see
system.mem_ctrls0.rdQLenPdf::28                     0                       # What read queue length does an incoming req see
system.mem_ctrls0.rdQLenPdf::29                     0                       # What read queue length does an incoming req see
system.mem_ctrls0.rdQLenPdf::30                     0                       # What read queue length does an incoming req see
system.mem_ctrls0.rdQLenPdf::31                     0                       # What read queue length does an incoming req see
system.mem_ctrls0.wrQLenPdf::0                      0                       # What write queue length does an incoming req see
system.mem_ctrls0.wrQLenPdf::1                      0                       # What write queue length does an incoming req see
system.mem_ctrls0.wrQLenPdf::2                      0                       # What write queue length does an incoming req see
system.mem_ctrls0.wrQLenPdf::3                      0                       # What write queue length does an incoming req see
system.mem_ctrls0.wrQLenPdf::4                      0                       # What write queue length does an incoming req see
system.mem_ctrls0.wrQLenPdf::5                      0                       # What write queue length does an incoming req see
system.mem_ctrls0.wrQLenPdf::6                      0                       # What write queue length does an incoming req see
system.mem_ctrls0.wrQLenPdf::7                      0                       # What write queue length does an incoming req see
system.mem_ctrls0.wrQLenPdf::8                      0                       # What write queue length does an incoming req see
system.mem_ctrls0.wrQLenPdf::9                      0                       # What write queue length does an incoming req see
system.mem_ctrls0.wrQLenPdf::10                     0                       # What write queue length does an incoming req see
system.mem_ctrls0.wrQLenPdf::11                     0                       # What write queue length does an incoming req see
system.mem_ctrls0.wrQLenPdf::12                     0                       # What write queue length does an incoming req see
system.mem_ctrls0.wrQLenPdf::13                     0                       # What write queue length does an incoming req see
system.mem_ctrls0.wrQLenPdf::14                     0                       # What write queue length does an incoming req see
system.mem_ctrls0.wrQLenPdf::15                     0                       # What write queue length does an incoming req see
system.mem_ctrls0.wrQLenPdf::16                     0                       # What write queue length does an incoming req see
system.mem_ctrls0.wrQLenPdf::17                     0                       # What write queue length does an incoming req see
system.mem_ctrls0.wrQLenPdf::18                     0                       # What write queue length does an incoming req see
system.mem_ctrls0.wrQLenPdf::19                     0                       # What write queue length does an incoming req see
system.mem_ctrls0.wrQLenPdf::20                     0                       # What write queue length does an incoming req see
system.mem_ctrls0.wrQLenPdf::21                     0                       # What write queue length does an incoming req see
system.mem_ctrls0.wrQLenPdf::22                     0                       # What write queue length does an incoming req see
system.mem_ctrls0.wrQLenPdf::23                     0                       # What write queue length does an incoming req see
system.mem_ctrls0.wrQLenPdf::24                     0                       # What write queue length does an incoming req see
system.mem_ctrls0.wrQLenPdf::25                     0                       # What write queue length does an incoming req see
system.mem_ctrls0.wrQLenPdf::26                     0                       # What write queue length does an incoming req see
system.mem_ctrls0.wrQLenPdf::27                     0                       # What write queue length does an incoming req see
system.mem_ctrls0.wrQLenPdf::28                     0                       # What write queue length does an incoming req see
system.mem_ctrls0.wrQLenPdf::29                     0                       # What write queue length does an incoming req see
system.mem_ctrls0.wrQLenPdf::30                     0                       # What write queue length does an incoming req see
system.mem_ctrls0.wrQLenPdf::31                     0                       # What write queue length does an incoming req see
system.mem_ctrls0.wrQLenPdf::32                     0                       # What write queue length does an incoming req see
system.mem_ctrls0.wrQLenPdf::33                     0                       # What write queue length does an incoming req see
system.mem_ctrls0.wrQLenPdf::34                     0                       # What write queue length does an incoming req see
system.mem_ctrls0.wrQLenPdf::35                     0                       # What write queue length does an incoming req see
system.mem_ctrls0.wrQLenPdf::36                     0                       # What write queue length does an incoming req see
system.mem_ctrls0.wrQLenPdf::37                     0                       # What write queue length does an incoming req see
system.mem_ctrls0.wrQLenPdf::38                     0                       # What write queue length does an incoming req see
system.mem_ctrls0.wrQLenPdf::39                     0                       # What write queue length does an incoming req see
system.mem_ctrls0.wrQLenPdf::40                     0                       # What write queue length does an incoming req see
system.mem_ctrls0.wrQLenPdf::41                     0                       # What write queue length does an incoming req see
system.mem_ctrls0.wrQLenPdf::42                     0                       # What write queue length does an incoming req see
system.mem_ctrls0.wrQLenPdf::43                     0                       # What write queue length does an incoming req see
system.mem_ctrls0.wrQLenPdf::44                     0                       # What write queue length does an incoming req see
system.mem_ctrls0.wrQLenPdf::45                     0                       # What write queue length does an incoming req see
system.mem_ctrls0.wrQLenPdf::46                     0                       # What write queue length does an incoming req see
system.mem_ctrls0.wrQLenPdf::47                     0                       # What write queue length does an incoming req see
system.mem_ctrls0.wrQLenPdf::48                     0                       # What write queue length does an incoming req see
system.mem_ctrls0.wrQLenPdf::49                     0                       # What write queue length does an incoming req see
system.mem_ctrls0.wrQLenPdf::50                     0                       # What write queue length does an incoming req see
system.mem_ctrls0.wrQLenPdf::51                     0                       # What write queue length does an incoming req see
system.mem_ctrls0.wrQLenPdf::52                     0                       # What write queue length does an incoming req see
system.mem_ctrls0.wrQLenPdf::53                     0                       # What write queue length does an incoming req see
system.mem_ctrls0.wrQLenPdf::54                     0                       # What write queue length does an incoming req see
system.mem_ctrls0.wrQLenPdf::55                     0                       # What write queue length does an incoming req see
system.mem_ctrls0.wrQLenPdf::56                     0                       # What write queue length does an incoming req see
system.mem_ctrls0.wrQLenPdf::57                     0                       # What write queue length does an incoming req see
system.mem_ctrls0.wrQLenPdf::58                     0                       # What write queue length does an incoming req see
system.mem_ctrls0.wrQLenPdf::59                     0                       # What write queue length does an incoming req see
system.mem_ctrls0.wrQLenPdf::60                     0                       # What write queue length does an incoming req see
system.mem_ctrls0.wrQLenPdf::61                     0                       # What write queue length does an incoming req see
system.mem_ctrls0.wrQLenPdf::62                     0                       # What write queue length does an incoming req see
system.mem_ctrls0.wrQLenPdf::63                     0                       # What write queue length does an incoming req see
system.mem_ctrls0.bytesPerActivate::samples          867                       # Bytes accessed per row activation
system.mem_ctrls0.bytesPerActivate::mean   129.181084                       # Bytes accessed per row activation
system.mem_ctrls0.bytesPerActivate::gmean    96.344369                       # Bytes accessed per row activation
system.mem_ctrls0.bytesPerActivate::stdev   147.080497                       # Bytes accessed per row activation
system.mem_ctrls0.bytesPerActivate::0-127          558     64.36%     64.36% # Bytes accessed per row activation
system.mem_ctrls0.bytesPerActivate::128-255          211     24.34%     88.70% # Bytes accessed per row activation
system.mem_ctrls0.bytesPerActivate::256-383           44      5.07%     93.77% # Bytes accessed per row activation
system.mem_ctrls0.bytesPerActivate::384-511           20      2.31%     96.08% # Bytes accessed per row activation
system.mem_ctrls0.bytesPerActivate::512-639           13      1.50%     97.58% # Bytes accessed per row activation
system.mem_ctrls0.bytesPerActivate::640-767            7      0.81%     98.39% # Bytes accessed per row activation
system.mem_ctrls0.bytesPerActivate::768-895            5      0.58%     98.96% # Bytes accessed per row activation
system.mem_ctrls0.bytesPerActivate::896-1023            2      0.23%     99.19% # Bytes accessed per row activation
system.mem_ctrls0.bytesPerActivate::1024-1151            7      0.81%    100.00% # Bytes accessed per row activation
system.mem_ctrls0.bytesPerActivate::total          867                       # Bytes accessed per row activation
system.mem_ctrls0.masterReadBytes::.ruby.dir_cntrl0       113856                       # Per-master bytes read from memory
system.mem_ctrls0.masterReadRate::.ruby.dir_cntrl0 680806280.906737089157                       # Per-master bytes read from memory rate (Bytes/sec)
system.mem_ctrls0.masterReadAccesses::.ruby.dir_cntrl0         1779                       # Per-master read serviced memory accesses
system.mem_ctrls0.masterReadTotalLat::.ruby.dir_cntrl0     72953734                       # Per-master read total memory access latency
system.mem_ctrls0.masterReadAvgLat::.ruby.dir_cntrl0     41008.28                       # Per-master read average memory access latency
system.mem_ctrls0.totQLat                    39597484                       # Total ticks spent queuing
system.mem_ctrls0.totMemAccLat               72953734                       # Total ticks spent from burst creation until serviced by the DRAM
system.mem_ctrls0.totBusLat                   8895000                       # Total ticks spent in databus transfers
system.mem_ctrls0.avgQLat                    22258.28                       # Average queueing delay per DRAM burst
system.mem_ctrls0.avgBusLat                   5000.00                       # Average bus latency per DRAM burst
system.mem_ctrls0.avgMemAccLat               41008.28                       # Average memory access latency per DRAM burst
system.mem_ctrls0.avgRdBW                      680.81                       # Average DRAM read bandwidth in MiByte/s
system.mem_ctrls0.avgWrBW                        0.00                       # Average achieved write bandwidth in MiByte/s
system.mem_ctrls0.avgRdBWSys                   680.81                       # Average system read bandwidth in MiByte/s
system.mem_ctrls0.avgWrBWSys                     0.00                       # Average system write bandwidth in MiByte/s
system.mem_ctrls0.peakBW                     12800.00                       # Theoretical peak bandwidth in MiByte/s
system.mem_ctrls0.busUtil                        5.32                       # Data bus utilization in percentage
system.mem_ctrls0.busUtilRead                    5.32                       # Data bus utilization in percentage for reads
system.mem_ctrls0.busUtilWrite                   0.00                       # Data bus utilization in percentage for writes
system.mem_ctrls0.avgRdQLen                      1.41                       # Average read queue length when enqueuing
system.mem_ctrls0.avgWrQLen                      0.00                       # Average write queue length when enqueuing
system.mem_ctrls0.readRowHits                     902                       # Number of row buffer hits during reads
system.mem_ctrls0.writeRowHits                      0                       # Number of row buffer hits during writes
system.mem_ctrls0.readRowHitRate                50.70                       # Row buffer hit rate for reads
system.mem_ctrls0.writeRowHitRate                 nan                       # Row buffer hit rate for writes
system.mem_ctrls0.avgGap                     93969.93                       # Average gap between requests
system.mem_ctrls0.pageHitRate                   50.70                       # Row buffer hit rate, read and write combined
system.mem_ctrls0_0.actEnergy                 3312960                       # Energy for activate commands per rank (pJ)
system.mem_ctrls0_0.preEnergy                 1741905                       # Energy for precharge commands per rank (pJ)
system.mem_ctrls0_0.readEnergy                6597360                       # Energy for read commands per rank (pJ)
system.mem_ctrls0_0.writeEnergy                     0                       # Energy for write commands per rank (pJ)
system.mem_ctrls0_0.refreshEnergy        12907440.000000                       # Energy for refresh commands per rank (pJ)
system.mem_ctrls0_0.actBackEnergy            15903000                       # Energy for active background per rank (pJ)
system.mem_ctrls0_0.preBackEnergy              271680                       # Energy for precharge background per rank (pJ)
system.mem_ctrls0_0.actPowerDownEnergy       58760160                       # Energy for active power-down per rank (pJ)
system.mem_ctrls0_0.prePowerDownEnergy        1069440                       # Energy for precharge power-down per rank (pJ)
system.mem_ctrls0_0.selfRefreshEnergy               0                       # Energy for self refresh per rank (pJ)
system.mem_ctrls0_0.totalEnergy             100563945                       # Total energy per rank (pJ)
system.mem_ctrls0_0.averagePower           601.325933                       # Core power per rank (mW)
system.mem_ctrls0_0.totalIdleTime           131395750                       # Total Idle time Per DRAM Rank
system.mem_ctrls0_0.memoryStateTime::IDLE       123500                       # Time in different power states
system.mem_ctrls0_0.memoryStateTime::REF      5460000                       # Time in different power states
system.mem_ctrls0_0.memoryStateTime::SREF            0                       # Time in different power states
system.mem_ctrls0_0.memoryStateTime::PRE_PDN      2781250                       # Time in different power states
system.mem_ctrls0_0.memoryStateTime::ACT     30020500                       # Time in different power states
system.mem_ctrls0_0.memoryStateTime::ACT_PDN    128851750                       # Time in different power states
system.mem_ctrls0_1.actEnergy                 2948820                       # Energy for activate commands per rank (pJ)
system.mem_ctrls0_1.preEnergy                 1548360                       # Energy for precharge commands per rank (pJ)
system.mem_ctrls0_1.readEnergy                6104700                       # Energy for read commands per rank (pJ)
system.mem_ctrls0_1.writeEnergy                     0                       # Energy for write commands per rank (pJ)
system.mem_ctrls0_1.refreshEnergy        12907440.000000                       # Energy for refresh commands per rank (pJ)
system.mem_ctrls0_1.actBackEnergy            15901860                       # Energy for active background per rank (pJ)
system.mem_ctrls0_1.preBackEnergy              271200                       # Energy for precharge background per rank (pJ)
system.mem_ctrls0_1.actPowerDownEnergy       57647520                       # Energy for active power-down per rank (pJ)
system.mem_ctrls0_1.prePowerDownEnergy        1921440                       # Energy for precharge power-down per rank (pJ)
system.mem_ctrls0_1.selfRefreshEnergy               0                       # Energy for self refresh per rank (pJ)
system.mem_ctrls0_1.totalEnergy              99251340                       # Total energy per rank (pJ)
system.mem_ctrls0_1.averagePower           593.477161                       # Core power per rank (mW)
system.mem_ctrls0_1.totalIdleTime           131394502                       # Total Idle time Per DRAM Rank
system.mem_ctrls0_1.memoryStateTime::IDLE       348500                       # Time in different power states
system.mem_ctrls0_1.memoryStateTime::REF      5460000                       # Time in different power states
system.mem_ctrls0_1.memoryStateTime::SREF            0                       # Time in different power states
system.mem_ctrls0_1.memoryStateTime::PRE_PDN      5000250                       # Time in different power states
system.mem_ctrls0_1.memoryStateTime::ACT     30003748                       # Time in different power states
system.mem_ctrls0_1.memoryStateTime::ACT_PDN    126424502                       # Time in different power states
system.mem_ctrls1.pwrStateResidencyTicks::UNDEFINED 2508531389500                       # Cumulative time (in ticks) in various power states
system.mem_ctrls1.bytes_read::.ruby.dir_cntrl1       113024                       # Number of bytes read from this memory
system.mem_ctrls1.bytes_read::total            113024                       # Number of bytes read from this memory
system.mem_ctrls1.num_reads::.ruby.dir_cntrl1         1766                       # Number of read requests responded to by this memory
system.mem_ctrls1.num_reads::total               1766                       # Number of read requests responded to by this memory
system.mem_ctrls1.bw_read::.ruby.dir_cntrl1    675831305                       # Total read bandwidth from this memory (bytes/s)
system.mem_ctrls1.bw_read::total            675831305                       # Total read bandwidth from this memory (bytes/s)
system.mem_ctrls1.bw_total::.ruby.dir_cntrl1    675831305                       # Total bandwidth to/from this memory (bytes/s)
system.mem_ctrls1.bw_total::total           675831305                       # Total bandwidth to/from this memory (bytes/s)
system.mem_ctrls1.avgPriority_.ruby.dir_cntrl1::samples      1766.00                       # Average QoS priority value for accepted requests
system.mem_ctrls1.priorityMinLatency     0.000000018750                       # per QoS priority minimum request to response latency (s)
system.mem_ctrls1.priorityMaxLatency     0.000000606500                       # per QoS priority maximum request to response latency (s)
system.mem_ctrls1.numReadWriteTurnArounds            0                       # Number of turnarounds from READ to WRITE
system.mem_ctrls1.numWriteReadTurnArounds            0                       # Number of turnarounds from WRITE to READ
system.mem_ctrls1.numStayReadState               3436                       # Number of times bus staying in READ state
system.mem_ctrls1.numStayWriteState                 0                       # Number of times bus staying in WRITE state
system.mem_ctrls1.readReqs                       1766                       # Number of read requests accepted
system.mem_ctrls1.writeReqs                         0                       # Number of write requests accepted
system.mem_ctrls1.readBursts                     1766                       # Number of DRAM read bursts, including those serviced by the write queue
system.mem_ctrls1.writeBursts                       0                       # Number of DRAM write bursts, including those merged in the write queue
system.mem_ctrls1.bytesReadDRAM                113024                       # Total number of bytes read from DRAM
system.mem_ctrls1.bytesReadWrQ                      0                       # Total number of bytes read from write queue
system.mem_ctrls1.bytesWritten                      0                       # Total number of bytes written to DRAM
system.mem_ctrls1.bytesReadSys                 113024                       # Total read bytes from the system interface side
system.mem_ctrls1.bytesWrittenSys                   0                       # Total written bytes from the system interface side
system.mem_ctrls1.servicedByWrQ                     0                       # Number of DRAM read bursts serviced by the write queue
system.mem_ctrls1.mergedWrBursts                    0                       # Number of DRAM write bursts merged with an existing one
system.mem_ctrls1.neitherReadNorWriteReqs            0                       # Number of requests that are neither read nor write
system.mem_ctrls1.perBankRdBursts::0              125                       # Per bank write bursts
system.mem_ctrls1.perBankRdBursts::1              141                       # Per bank write bursts
system.mem_ctrls1.perBankRdBursts::2               88                       # Per bank write bursts
system.mem_ctrls1.perBankRdBursts::3              142                       # Per bank write bursts
system.mem_ctrls1.perBankRdBursts::4              117                       # Per bank write bursts
system.mem_ctrls1.perBankRdBursts::5               76                       # Per bank write bursts
system.mem_ctrls1.perBankRdBursts::6               96                       # Per bank write bursts
system.mem_ctrls1.perBankRdBursts::7              154                       # Per bank write bursts
system.mem_ctrls1.perBankRdBursts::8               94                       # Per bank write bursts
system.mem_ctrls1.perBankRdBursts::9               81                       # Per bank write bursts
system.mem_ctrls1.perBankRdBursts::10             158                       # Per bank write bursts
system.mem_ctrls1.perBankRdBursts::11             123                       # Per bank write bursts
system.mem_ctrls1.perBankRdBursts::12             106                       # Per bank write bursts
system.mem_ctrls1.perBankRdBursts::13              95                       # Per bank write bursts
system.mem_ctrls1.perBankRdBursts::14              58                       # Per bank write bursts
system.mem_ctrls1.perBankRdBursts::15             112                       # Per bank write bursts
system.mem_ctrls1.perBankWrBursts::0                0                       # Per bank write bursts
system.mem_ctrls1.perBankWrBursts::1                0                       # Per bank write bursts
system.mem_ctrls1.perBankWrBursts::2                0                       # Per bank write bursts
system.mem_ctrls1.perBankWrBursts::3                0                       # Per bank write bursts
system.mem_ctrls1.perBankWrBursts::4                0                       # Per bank write bursts
system.mem_ctrls1.perBankWrBursts::5                0                       # Per bank write bursts
system.mem_ctrls1.perBankWrBursts::6                0                       # Per bank write bursts
system.mem_ctrls1.perBankWrBursts::7                0                       # Per bank write bursts
system.mem_ctrls1.perBankWrBursts::8                0                       # Per bank write bursts
system.mem_ctrls1.perBankWrBursts::9                0                       # Per bank write bursts
system.mem_ctrls1.perBankWrBursts::10               0                       # Per bank write bursts
system.mem_ctrls1.perBankWrBursts::11               0                       # Per bank write bursts
system.mem_ctrls1.perBankWrBursts::12               0                       # Per bank write bursts
system.mem_ctrls1.perBankWrBursts::13               0                       # Per bank write bursts
system.mem_ctrls1.perBankWrBursts::14               0                       # Per bank write bursts
system.mem_ctrls1.perBankWrBursts::15               0                       # Per bank write bursts
system.mem_ctrls1.numRdRetry                        0                       # Number of times read queue was full causing retry
system.mem_ctrls1.numWrRetry                        0                       # Number of times write queue was full causing retry
system.mem_ctrls1.totGap                    167182000                       # Total gap between requests
system.mem_ctrls1.readPktSize::0                    0                       # Read request sizes (log2)
system.mem_ctrls1.readPktSize::1                    0                       # Read request sizes (log2)
system.mem_ctrls1.readPktSize::2                    0                       # Read request sizes (log2)
system.mem_ctrls1.readPktSize::3                    0                       # Read request sizes (log2)
system.mem_ctrls1.readPktSize::4                    0                       # Read request sizes (log2)
system.mem_ctrls1.readPktSize::5                    0                       # Read request sizes (log2)
system.mem_ctrls1.readPktSize::6                 1766                       # Read request sizes (log2)
system.mem_ctrls1.writePktSize::0                   0                       # Write request sizes (log2)
system.mem_ctrls1.writePktSize::1                   0                       # Write request sizes (log2)
system.mem_ctrls1.writePktSize::2                   0                       # Write request sizes (log2)
system.mem_ctrls1.writePktSize::3                   0                       # Write request sizes (log2)
system.mem_ctrls1.writePktSize::4                   0                       # Write request sizes (log2)
system.mem_ctrls1.writePktSize::5                   0                       # Write request sizes (log2)
system.mem_ctrls1.writePktSize::6                   0                       # Write request sizes (log2)
system.mem_ctrls1.rdQLenPdf::0                   1134                       # What read queue length does an incoming req see
system.mem_ctrls1.rdQLenPdf::1                    476                       # What read queue length does an incoming req see
system.mem_ctrls1.rdQLenPdf::2                    118                       # What read queue length does an incoming req see
system.mem_ctrls1.rdQLenPdf::3                     30                       # What read queue length does an incoming req see
system.mem_ctrls1.rdQLenPdf::4                      6                       # What read queue length does an incoming req see
system.mem_ctrls1.rdQLenPdf::5                      1                       # What read queue length does an incoming req see
system.mem_ctrls1.rdQLenPdf::6                      1                       # What read queue length does an incoming req see
system.mem_ctrls1.rdQLenPdf::7                      0                       # What read queue length does an incoming req see
system.mem_ctrls1.rdQLenPdf::8                      0                       # What read queue length does an incoming req see
system.mem_ctrls1.rdQLenPdf::9                      0                       # What read queue length does an incoming req see
system.mem_ctrls1.rdQLenPdf::10                     0                       # What read queue length does an incoming req see
system.mem_ctrls1.rdQLenPdf::11                     0                       # What read queue length does an incoming req see
system.mem_ctrls1.rdQLenPdf::12                     0                       # What read queue length does an incoming req see
system.mem_ctrls1.rdQLenPdf::13                     0                       # What read queue length does an incoming req see
system.mem_ctrls1.rdQLenPdf::14                     0                       # What read queue length does an incoming req see
system.mem_ctrls1.rdQLenPdf::15                     0                       # What read queue length does an incoming req see
system.mem_ctrls1.rdQLenPdf::16                     0                       # What read queue length does an incoming req see
system.mem_ctrls1.rdQLenPdf::17                     0                       # What read queue length does an incoming req see
system.mem_ctrls1.rdQLenPdf::18                     0                       # What read queue length does an incoming req see
system.mem_ctrls1.rdQLenPdf::19                     0                       # What read queue length does an incoming req see
system.mem_ctrls1.rdQLenPdf::20                     0                       # What read queue length does an incoming req see
system.mem_ctrls1.rdQLenPdf::21                     0                       # What read queue length does an incoming req see
system.mem_ctrls1.rdQLenPdf::22                     0                       # What read queue length does an incoming req see
system.mem_ctrls1.rdQLenPdf::23                     0                       # What read queue length does an incoming req see
system.mem_ctrls1.rdQLenPdf::24                     0                       # What read queue length does an incoming req see
system.mem_ctrls1.rdQLenPdf::25                     0                       # What read queue length does an incoming req see
system.mem_ctrls1.rdQLenPdf::26                     0                       # What read queue length does an incoming req see
system.mem_ctrls1.rdQLenPdf::27                     0                       # What read queue length does an incoming req see
system.mem_ctrls1.rdQLenPdf::28                     0                       # What read queue length does an incoming req see
system.mem_ctrls1.rdQLenPdf::29                     0                       # What read queue length does an incoming req see
system.mem_ctrls1.rdQLenPdf::30                     0                       # What read queue length does an incoming req see
system.mem_ctrls1.rdQLenPdf::31                     0                       # What read queue length does an incoming req see
system.mem_ctrls1.wrQLenPdf::0                      0                       # What write queue length does an incoming req see
system.mem_ctrls1.wrQLenPdf::1                      0                       # What write queue length does an incoming req see
system.mem_ctrls1.wrQLenPdf::2                      0                       # What write queue length does an incoming req see
system.mem_ctrls1.wrQLenPdf::3                      0                       # What write queue length does an incoming req see
system.mem_ctrls1.wrQLenPdf::4                      0                       # What write queue length does an incoming req see
system.mem_ctrls1.wrQLenPdf::5                      0                       # What write queue length does an incoming req see
system.mem_ctrls1.wrQLenPdf::6                      0                       # What write queue length does an incoming req see
system.mem_ctrls1.wrQLenPdf::7                      0                       # What write queue length does an incoming req see
system.mem_ctrls1.wrQLenPdf::8                      0                       # What write queue length does an incoming req see
system.mem_ctrls1.wrQLenPdf::9                      0                       # What write queue length does an incoming req see
system.mem_ctrls1.wrQLenPdf::10                     0                       # What write queue length does an incoming req see
system.mem_ctrls1.wrQLenPdf::11                     0                       # What write queue length does an incoming req see
system.mem_ctrls1.wrQLenPdf::12                     0                       # What write queue length does an incoming req see
system.mem_ctrls1.wrQLenPdf::13                     0                       # What write queue length does an incoming req see
system.mem_ctrls1.wrQLenPdf::14                     0                       # What write queue length does an incoming req see
system.mem_ctrls1.wrQLenPdf::15                     0                       # What write queue length does an incoming req see
system.mem_ctrls1.wrQLenPdf::16                     0                       # What write queue length does an incoming req see
system.mem_ctrls1.wrQLenPdf::17                     0                       # What write queue length does an incoming req see
system.mem_ctrls1.wrQLenPdf::18                     0                       # What write queue length does an incoming req see
system.mem_ctrls1.wrQLenPdf::19                     0                       # What write queue length does an incoming req see
system.mem_ctrls1.wrQLenPdf::20                     0                       # What write queue length does an incoming req see
system.mem_ctrls1.wrQLenPdf::21                     0                       # What write queue length does an incoming req see
system.mem_ctrls1.wrQLenPdf::22                     0                       # What write queue length does an incoming req see
system.mem_ctrls1.wrQLenPdf::23                     0                       # What write queue length does an incoming req see
system.mem_ctrls1.wrQLenPdf::24                     0                       # What write queue length does an incoming req see
system.mem_ctrls1.wrQLenPdf::25                     0                       # What write queue length does an incoming req see
system.mem_ctrls1.wrQLenPdf::26                     0                       # What write queue length does an incoming req see
system.mem_ctrls1.wrQLenPdf::27                     0                       # What write queue length does an incoming req see
system.mem_ctrls1.wrQLenPdf::28                     0                       # What write queue length does an incoming req see
system.mem_ctrls1.wrQLenPdf::29                     0                       # What write queue length does an incoming req see
system.mem_ctrls1.wrQLenPdf::30                     0                       # What write queue length does an incoming req see
system.mem_ctrls1.wrQLenPdf::31                     0                       # What write queue length does an incoming req see
system.mem_ctrls1.wrQLenPdf::32                     0                       # What write queue length does an incoming req see
system.mem_ctrls1.wrQLenPdf::33                     0                       # What write queue length does an incoming req see
system.mem_ctrls1.wrQLenPdf::34                     0                       # What write queue length does an incoming req see
system.mem_ctrls1.wrQLenPdf::35                     0                       # What write queue length does an incoming req see
system.mem_ctrls1.wrQLenPdf::36                     0                       # What write queue length does an incoming req see
system.mem_ctrls1.wrQLenPdf::37                     0                       # What write queue length does an incoming req see
system.mem_ctrls1.wrQLenPdf::38                     0                       # What write queue length does an incoming req see
system.mem_ctrls1.wrQLenPdf::39                     0                       # What write queue length does an incoming req see
system.mem_ctrls1.wrQLenPdf::40                     0                       # What write queue length does an incoming req see
system.mem_ctrls1.wrQLenPdf::41                     0                       # What write queue length does an incoming req see
system.mem_ctrls1.wrQLenPdf::42                     0                       # What write queue length does an incoming req see
system.mem_ctrls1.wrQLenPdf::43                     0                       # What write queue length does an incoming req see
system.mem_ctrls1.wrQLenPdf::44                     0                       # What write queue length does an incoming req see
system.mem_ctrls1.wrQLenPdf::45                     0                       # What write queue length does an incoming req see
system.mem_ctrls1.wrQLenPdf::46                     0                       # What write queue length does an incoming req see
system.mem_ctrls1.wrQLenPdf::47                     0                       # What write queue length does an incoming req see
system.mem_ctrls1.wrQLenPdf::48                     0                       # What write queue length does an incoming req see
system.mem_ctrls1.wrQLenPdf::49                     0                       # What write queue length does an incoming req see
system.mem_ctrls1.wrQLenPdf::50                     0                       # What write queue length does an incoming req see
system.mem_ctrls1.wrQLenPdf::51                     0                       # What write queue length does an incoming req see
system.mem_ctrls1.wrQLenPdf::52                     0                       # What write queue length does an incoming req see
system.mem_ctrls1.wrQLenPdf::53                     0                       # What write queue length does an incoming req see
system.mem_ctrls1.wrQLenPdf::54                     0                       # What write queue length does an incoming req see
system.mem_ctrls1.wrQLenPdf::55                     0                       # What write queue length does an incoming req see
system.mem_ctrls1.wrQLenPdf::56                     0                       # What write queue length does an incoming req see
system.mem_ctrls1.wrQLenPdf::57                     0                       # What write queue length does an incoming req see
system.mem_ctrls1.wrQLenPdf::58                     0                       # What write queue length does an incoming req see
system.mem_ctrls1.wrQLenPdf::59                     0                       # What write queue length does an incoming req see
system.mem_ctrls1.wrQLenPdf::60                     0                       # What write queue length does an incoming req see
system.mem_ctrls1.wrQLenPdf::61                     0                       # What write queue length does an incoming req see
system.mem_ctrls1.wrQLenPdf::62                     0                       # What write queue length does an incoming req see
system.mem_ctrls1.wrQLenPdf::63                     0                       # What write queue length does an incoming req see
system.mem_ctrls1.bytesPerActivate::samples          877                       # Bytes accessed per row activation
system.mem_ctrls1.bytesPerActivate::mean   125.810718                       # Bytes accessed per row activation
system.mem_ctrls1.bytesPerActivate::gmean    94.022635                       # Bytes accessed per row activation
system.mem_ctrls1.bytesPerActivate::stdev   145.970866                       # Bytes accessed per row activation
system.mem_ctrls1.bytesPerActivate::0-127          587     66.93%     66.93% # Bytes accessed per row activation
system.mem_ctrls1.bytesPerActivate::128-255          194     22.12%     89.05% # Bytes accessed per row activation
system.mem_ctrls1.bytesPerActivate::256-383           50      5.70%     94.75% # Bytes accessed per row activation
system.mem_ctrls1.bytesPerActivate::384-511           13      1.48%     96.24% # Bytes accessed per row activation
system.mem_ctrls1.bytesPerActivate::512-639           14      1.60%     97.83% # Bytes accessed per row activation
system.mem_ctrls1.bytesPerActivate::640-767            6      0.68%     98.52% # Bytes accessed per row activation
system.mem_ctrls1.bytesPerActivate::768-895            3      0.34%     98.86% # Bytes accessed per row activation
system.mem_ctrls1.bytesPerActivate::896-1023            2      0.23%     99.09% # Bytes accessed per row activation
system.mem_ctrls1.bytesPerActivate::1024-1151            8      0.91%    100.00% # Bytes accessed per row activation
system.mem_ctrls1.bytesPerActivate::total          877                       # Bytes accessed per row activation
system.mem_ctrls1.masterReadBytes::.ruby.dir_cntrl1       113024                       # Per-master bytes read from memory
system.mem_ctrls1.masterReadRate::.ruby.dir_cntrl1 675831305.273354530334                       # Per-master bytes read from memory rate (Bytes/sec)
system.mem_ctrls1.masterReadAccesses::.ruby.dir_cntrl1         1766                       # Per-master read serviced memory accesses
system.mem_ctrls1.masterReadTotalLat::.ruby.dir_cntrl1     73365491                       # Per-master read total memory access latency
system.mem_ctrls1.masterReadAvgLat::.ruby.dir_cntrl1     41543.31                       # Per-master read average memory access latency
system.mem_ctrls1.totQLat                    40252991                       # Total ticks spent queuing
system.mem_ctrls1.totMemAccLat               73365491                       # Total ticks spent from burst creation until serviced by the DRAM
system.mem_ctrls1.totBusLat                   8830000                       # Total ticks spent in databus transfers
system.mem_ctrls1.avgQLat                    22793.31                       # Average queueing delay per DRAM burst
system.mem_ctrls1.avgBusLat                   5000.00                       # Average bus latency per DRAM burst
system.mem_ctrls1.avgMemAccLat               41543.31                       # Average memory access latency per DRAM burst
system.mem_ctrls1.avgRdBW                      675.83                       # Average DRAM read bandwidth in MiByte/s
system.mem_ctrls1.avgWrBW                        0.00                       # Average achieved write bandwidth in MiByte/s
system.mem_ctrls1.avgRdBWSys                   675.83                       # Average system read bandwidth in MiByte/s
system.mem_ctrls1.avgWrBWSys                     0.00                       # Average system write bandwidth in MiByte/s
system.mem_ctrls1.peakBW                     12800.00                       # Theoretical peak bandwidth in MiByte/s
system.mem_ctrls1.busUtil                        5.28                       # Data bus utilization in percentage
system.mem_ctrls1.busUtilRead                    5.28                       # Data bus utilization in percentage for reads
system.mem_ctrls1.busUtilWrite                   0.00                       # Data bus utilization in percentage for writes
system.mem_ctrls1.avgRdQLen                      1.41                       # Average read queue length when enqueuing
system.mem_ctrls1.avgWrQLen                      0.00                       # Average write queue length when enqueuing
system.mem_ctrls1.readRowHits                     878                       # Number of row buffer hits during reads
system.mem_ctrls1.writeRowHits                      0                       # Number of row buffer hits during writes
system.mem_ctrls1.readRowHitRate                49.72                       # Row buffer hit rate for reads
system.mem_ctrls1.writeRowHitRate                 nan                       # Row buffer hit rate for writes
system.mem_ctrls1.avgGap                     94667.04                       # Average gap between requests
system.mem_ctrls1.pageHitRate                   49.72                       # Row buffer hit rate, read and write combined
system.mem_ctrls1_0.actEnergy                 3484320                       # Energy for activate commands per rank (pJ)
system.mem_ctrls1_0.preEnergy                 1829190                       # Energy for precharge commands per rank (pJ)
system.mem_ctrls1_0.readEnergy                6704460                       # Energy for read commands per rank (pJ)
system.mem_ctrls1_0.writeEnergy                     0                       # Energy for write commands per rank (pJ)
system.mem_ctrls1_0.refreshEnergy        12907440.000000                       # Energy for refresh commands per rank (pJ)
system.mem_ctrls1_0.actBackEnergy            16335060                       # Energy for active background per rank (pJ)
system.mem_ctrls1_0.preBackEnergy              275520                       # Energy for precharge background per rank (pJ)
system.mem_ctrls1_0.actPowerDownEnergy       56769720                       # Energy for active power-down per rank (pJ)
system.mem_ctrls1_0.prePowerDownEnergy        2349600                       # Energy for precharge power-down per rank (pJ)
system.mem_ctrls1_0.selfRefreshEnergy               0                       # Energy for self refresh per rank (pJ)
system.mem_ctrls1_0.totalEnergy             100655310                       # Total energy per rank (pJ)
system.mem_ctrls1_0.averagePower           601.872253                       # Core power per rank (mW)
system.mem_ctrls1_0.totalIdleTime           130296501                       # Total Idle time Per DRAM Rank
system.mem_ctrls1_0.memoryStateTime::IDLE       179500                       # Time in different power states
system.mem_ctrls1_0.memoryStateTime::REF      5460000                       # Time in different power states
system.mem_ctrls1_0.memoryStateTime::SREF            0                       # Time in different power states
system.mem_ctrls1_0.memoryStateTime::PRE_PDN      6117000                       # Time in different power states
system.mem_ctrls1_0.memoryStateTime::ACT     31000749                       # Time in different power states
system.mem_ctrls1_0.memoryStateTime::ACT_PDN    124479751                       # Time in different power states
system.mem_ctrls1_1.actEnergy                 2856000                       # Energy for activate commands per rank (pJ)
system.mem_ctrls1_1.preEnergy                 1499025                       # Energy for precharge commands per rank (pJ)
system.mem_ctrls1_1.readEnergy                5904780                       # Energy for read commands per rank (pJ)
system.mem_ctrls1_1.writeEnergy                     0                       # Energy for write commands per rank (pJ)
system.mem_ctrls1_1.refreshEnergy        12907440.000000                       # Energy for refresh commands per rank (pJ)
system.mem_ctrls1_1.actBackEnergy            15073080                       # Energy for active background per rank (pJ)
system.mem_ctrls1_1.preBackEnergy              275520                       # Energy for precharge background per rank (pJ)
system.mem_ctrls1_1.actPowerDownEnergy       57574560                       # Energy for active power-down per rank (pJ)
system.mem_ctrls1_1.prePowerDownEnergy        2762880                       # Energy for precharge power-down per rank (pJ)
system.mem_ctrls1_1.selfRefreshEnergy               0                       # Energy for self refresh per rank (pJ)
system.mem_ctrls1_1.totalEnergy              98853285                       # Total energy per rank (pJ)
system.mem_ctrls1_1.averagePower           591.096976                       # Core power per rank (mW)
system.mem_ctrls1_1.totalIdleTime           133422250                       # Total Idle time Per DRAM Rank
system.mem_ctrls1_1.memoryStateTime::IDLE       123500                       # Time in different power states
system.mem_ctrls1_1.memoryStateTime::REF      5460000                       # Time in different power states
system.mem_ctrls1_1.memoryStateTime::SREF            0                       # Time in different power states
system.mem_ctrls1_1.memoryStateTime::PRE_PDN      7190500                       # Time in different power states
system.mem_ctrls1_1.memoryStateTime::ACT     28210500                       # Time in different power states
system.mem_ctrls1_1.memoryStateTime::ACT_PDN    126252500                       # Time in different power states
system.pwrStateResidencyTicks::UNDEFINED 2508531389500                       # Cumulative time (in ticks) in various power states
system.cpu_voltage_domain.voltage                   1                       # Voltage in Volts
system.cpu_clk_domain.clock                       500                       # Clock period in ticks
system.cpu0.dtb.walker.pwrStateResidencyTicks::UNDEFINED 2508531389500                       # Cumulative time (in ticks) in various power states
system.cpu0.dtb.rdAccesses                          0                       # TLB accesses on read requests
system.cpu0.dtb.wrAccesses                          0                       # TLB accesses on write requests
system.cpu0.dtb.rdMisses                            0                       # TLB misses on read requests
system.cpu0.dtb.wrMisses                            0                       # TLB misses on write requests
system.cpu0.apic_clk_domain.clock                8000                       # Clock period in ticks
system.cpu0.interrupts.pwrStateResidencyTicks::UNDEFINED 2508531389500                       # Cumulative time (in ticks) in various power states
system.cpu0.itb.walker.pwrStateResidencyTicks::UNDEFINED 2508531389500                       # Cumulative time (in ticks) in various power states
system.cpu0.itb.rdAccesses                          0                       # TLB accesses on read requests
system.cpu0.itb.wrAccesses                          0                       # TLB accesses on write requests
system.cpu0.itb.rdMisses                            0                       # TLB misses on read requests
system.cpu0.itb.wrMisses                            0                       # TLB misses on write requests
system.cpu0.pwrStateResidencyTicks::OFF     167237000                       # Cumulative time (in ticks) in various power states
system.cpu0.numCycles                               0                       # number of cpu cycles simulated
system.cpu0.numWorkItemsStarted                     0                       # number of work items this cpu started
system.cpu0.numWorkItemsCompleted                   0                       # number of work items this cpu completed
system.cpu0.kern.inst.arm                           0                       # number of arm instructions executed
system.cpu0.kern.inst.quiesce                       0                       # number of quiesce instructions executed
system.cpu0.committedInsts                          0                       # Number of instructions committed
system.cpu0.committedOps                            0                       # Number of ops (including micro ops) committed
system.cpu0.num_int_alu_accesses                    0                       # Number of integer alu accesses
system.cpu0.num_fp_alu_accesses                     0                       # Number of float alu accesses
system.cpu0.num_vec_alu_accesses                    0                       # Number of vector alu accesses
system.cpu0.num_func_calls                          0                       # number of times a function call or return occured
system.cpu0.num_conditional_control_insts            0                       # number of instructions that are conditional controls
system.cpu0.num_int_insts                           0                       # number of integer instructions
system.cpu0.num_fp_insts                            0                       # number of float instructions
system.cpu0.num_vec_insts                           0                       # number of vector instructions
system.cpu0.num_int_register_reads                  0                       # number of times the integer registers were read
system.cpu0.num_int_register_writes                 0                       # number of times the integer registers were written
system.cpu0.num_fp_register_reads                   0                       # number of times the floating registers were read
system.cpu0.num_fp_register_writes                  0                       # number of times the floating registers were written
system.cpu0.num_vec_register_reads                  0                       # number of times the vector registers were read
system.cpu0.num_vec_register_writes                 0                       # number of times the vector registers were written
system.cpu0.num_mem_refs                            0                       # number of memory refs
system.cpu0.num_load_insts                          0                       # Number of load instructions
system.cpu0.num_store_insts                         0                       # Number of store instructions
system.cpu0.num_idle_cycles                         0                       # Number of idle cycles
system.cpu0.num_busy_cycles                         0                       # Number of busy cycles
system.cpu0.not_idle_fraction                       1                       # Percentage of non-idle cycles
system.cpu0.idle_fraction                           0                       # Percentage of idle cycles
system.cpu0.op_class::No_OpClass                    0                       # Class of executed instruction
system.cpu0.op_class::IntAlu                        0                       # Class of executed instruction
system.cpu0.op_class::IntMult                       0                       # Class of executed instruction
system.cpu0.op_class::IntDiv                        0                       # Class of executed instruction
system.cpu0.op_class::FloatAdd                      0                       # Class of executed instruction
system.cpu0.op_class::FloatCmp                      0                       # Class of executed instruction
system.cpu0.op_class::FloatCvt                      0                       # Class of executed instruction
system.cpu0.op_class::FloatMult                     0                       # Class of executed instruction
system.cpu0.op_class::FloatMultAcc                  0                       # Class of executed instruction
system.cpu0.op_class::FloatDiv                      0                       # Class of executed instruction
system.cpu0.op_class::FloatMisc                     0                       # Class of executed instruction
system.cpu0.op_class::FloatSqrt                     0                       # Class of executed instruction
system.cpu0.op_class::SimdAdd                       0                       # Class of executed instruction
system.cpu0.op_class::SimdAddAcc                    0                       # Class of executed instruction
system.cpu0.op_class::SimdAlu                       0                       # Class of executed instruction
system.cpu0.op_class::SimdCmp                       0                       # Class of executed instruction
system.cpu0.op_class::SimdCvt                       0                       # Class of executed instruction
system.cpu0.op_class::SimdMisc                      0                       # Class of executed instruction
system.cpu0.op_class::SimdMult                      0                       # Class of executed instruction
system.cpu0.op_class::SimdMultAcc                   0                       # Class of executed instruction
system.cpu0.op_class::SimdShift                     0                       # Class of executed instruction
system.cpu0.op_class::SimdShiftAcc                  0                       # Class of executed instruction
system.cpu0.op_class::SimdSqrt                      0                       # Class of executed instruction
system.cpu0.op_class::SimdFloatAdd                  0                       # Class of executed instruction
system.cpu0.op_class::SimdFloatAlu                  0                       # Class of executed instruction
system.cpu0.op_class::SimdFloatCmp                  0                       # Class of executed instruction
system.cpu0.op_class::SimdFloatCvt                  0                       # Class of executed instruction
system.cpu0.op_class::SimdFloatDiv                  0                       # Class of executed instruction
system.cpu0.op_class::SimdFloatMisc                 0                       # Class of executed instruction
system.cpu0.op_class::SimdFloatMult                 0                       # Class of executed instruction
system.cpu0.op_class::SimdFloatMultAcc              0                       # Class of executed instruction
system.cpu0.op_class::SimdFloatSqrt                 0                       # Class of executed instruction
system.cpu0.op_class::SimdAes                       0                       # Class of executed instruction
system.cpu0.op_class::SimdAesMix                    0                       # Class of executed instruction
system.cpu0.op_class::SimdSha1Hash                  0                       # Class of executed instruction
system.cpu0.op_class::SimdSha1Hash2                 0                       # Class of executed instruction
system.cpu0.op_class::SimdSha256Hash                0                       # Class of executed instruction
system.cpu0.op_class::SimdSha256Hash2               0                       # Class of executed instruction
system.cpu0.op_class::SimdShaSigma2                 0                       # Class of executed instruction
system.cpu0.op_class::SimdShaSigma3                 0                       # Class of executed instruction
system.cpu0.op_class::MemRead                       0                       # Class of executed instruction
system.cpu0.op_class::MemWrite                      0                       # Class of executed instruction
system.cpu0.op_class::FloatMemRead                  0                       # Class of executed instruction
system.cpu0.op_class::FloatMemWrite                 0                       # Class of executed instruction
system.cpu0.op_class::IprAccess                     0                       # Class of executed instruction
system.cpu0.op_class::InstPrefetch                  0                       # Class of executed instruction
system.cpu0.op_class::total                         0                       # Class of executed instruction
system.cpu1.dtb.walker.pwrStateResidencyTicks::UNDEFINED 2508531389500                       # Cumulative time (in ticks) in various power states
system.cpu1.dtb.rdAccesses                          0                       # TLB accesses on read requests
system.cpu1.dtb.wrAccesses                          0                       # TLB accesses on write requests
system.cpu1.dtb.rdMisses                            0                       # TLB misses on read requests
system.cpu1.dtb.wrMisses                            0                       # TLB misses on write requests
system.cpu1.apic_clk_domain.clock                8000                       # Clock period in ticks
system.cpu1.interrupts.pwrStateResidencyTicks::UNDEFINED 2508531389500                       # Cumulative time (in ticks) in various power states
system.cpu1.itb.walker.pwrStateResidencyTicks::UNDEFINED 2508531389500                       # Cumulative time (in ticks) in various power states
system.cpu1.itb.rdAccesses                          0                       # TLB accesses on read requests
system.cpu1.itb.wrAccesses                          0                       # TLB accesses on write requests
system.cpu1.itb.rdMisses                            0                       # TLB misses on read requests
system.cpu1.itb.wrMisses                            0                       # TLB misses on write requests
system.cpu1.pwrStateResidencyTicks::OFF     167237000                       # Cumulative time (in ticks) in various power states
system.cpu1.numCycles                               0                       # number of cpu cycles simulated
system.cpu1.numWorkItemsStarted                     0                       # number of work items this cpu started
system.cpu1.numWorkItemsCompleted                   0                       # number of work items this cpu completed
system.cpu1.kern.inst.arm                           0                       # number of arm instructions executed
system.cpu1.kern.inst.quiesce                       0                       # number of quiesce instructions executed
system.cpu1.committedInsts                          0                       # Number of instructions committed
system.cpu1.committedOps                            0                       # Number of ops (including micro ops) committed
system.cpu1.num_int_alu_accesses                    0                       # Number of integer alu accesses
system.cpu1.num_fp_alu_accesses                     0                       # Number of float alu accesses
system.cpu1.num_vec_alu_accesses                    0                       # Number of vector alu accesses
system.cpu1.num_func_calls                          0                       # number of times a function call or return occured
system.cpu1.num_conditional_control_insts            0                       # number of instructions that are conditional controls
system.cpu1.num_int_insts                           0                       # number of integer instructions
system.cpu1.num_fp_insts                            0                       # number of float instructions
system.cpu1.num_vec_insts                           0                       # number of vector instructions
system.cpu1.num_int_register_reads                  0                       # number of times the integer registers were read
system.cpu1.num_int_register_writes                 0                       # number of times the integer registers were written
system.cpu1.num_fp_register_reads                   0                       # number of times the floating registers were read
system.cpu1.num_fp_register_writes                  0                       # number of times the floating registers were written
system.cpu1.num_vec_register_reads                  0                       # number of times the vector registers were read
system.cpu1.num_vec_register_writes                 0                       # number of times the vector registers were written
system.cpu1.num_mem_refs                            0                       # number of memory refs
system.cpu1.num_load_insts                          0                       # Number of load instructions
system.cpu1.num_store_insts                         0                       # Number of store instructions
system.cpu1.num_idle_cycles                         0                       # Number of idle cycles
system.cpu1.num_busy_cycles                         0                       # Number of busy cycles
system.cpu1.not_idle_fraction                       1                       # Percentage of non-idle cycles
system.cpu1.idle_fraction                           0                       # Percentage of idle cycles
system.cpu1.op_class::No_OpClass                    0                       # Class of executed instruction
system.cpu1.op_class::IntAlu                        0                       # Class of executed instruction
system.cpu1.op_class::IntMult                       0                       # Class of executed instruction
system.cpu1.op_class::IntDiv                        0                       # Class of executed instruction
system.cpu1.op_class::FloatAdd                      0                       # Class of executed instruction
system.cpu1.op_class::FloatCmp                      0                       # Class of executed instruction
system.cpu1.op_class::FloatCvt                      0                       # Class of executed instruction
system.cpu1.op_class::FloatMult                     0                       # Class of executed instruction
system.cpu1.op_class::FloatMultAcc                  0                       # Class of executed instruction
system.cpu1.op_class::FloatDiv                      0                       # Class of executed instruction
system.cpu1.op_class::FloatMisc                     0                       # Class of executed instruction
system.cpu1.op_class::FloatSqrt                     0                       # Class of executed instruction
system.cpu1.op_class::SimdAdd                       0                       # Class of executed instruction
system.cpu1.op_class::SimdAddAcc                    0                       # Class of executed instruction
system.cpu1.op_class::SimdAlu                       0                       # Class of executed instruction
system.cpu1.op_class::SimdCmp                       0                       # Class of executed instruction
system.cpu1.op_class::SimdCvt                       0                       # Class of executed instruction
system.cpu1.op_class::SimdMisc                      0                       # Class of executed instruction
system.cpu1.op_class::SimdMult                      0                       # Class of executed instruction
system.cpu1.op_class::SimdMultAcc                   0                       # Class of executed instruction
system.cpu1.op_class::SimdShift                     0                       # Class of executed instruction
system.cpu1.op_class::SimdShiftAcc                  0                       # Class of executed instruction
system.cpu1.op_class::SimdSqrt                      0                       # Class of executed instruction
system.cpu1.op_class::SimdFloatAdd                  0                       # Class of executed instruction
system.cpu1.op_class::SimdFloatAlu                  0                       # Class of executed instruction
system.cpu1.op_class::SimdFloatCmp                  0                       # Class of executed instruction
system.cpu1.op_class::SimdFloatCvt                  0                       # Class of executed instruction
system.cpu1.op_class::SimdFloatDiv                  0                       # Class of executed instruction
system.cpu1.op_class::SimdFloatMisc                 0                       # Class of executed instruction
system.cpu1.op_class::SimdFloatMult                 0                       # Class of executed instruction
system.cpu1.op_class::SimdFloatMultAcc              0                       # Class of executed instruction
system.cpu1.op_class::SimdFloatSqrt                 0                       # Class of executed instruction
system.cpu1.op_class::SimdAes                       0                       # Class of executed instruction
[...]
system.ruby.Locked_RMW_Write.latency_hist_seqr::max_bucket            9                      
system.ruby.Locked_RMW_Write.latency_hist_seqr::samples         1011                      
system.ruby.Locked_RMW_Write.latency_hist_seqr::mean            1                      
system.ruby.Locked_RMW_Write.latency_hist_seqr::gmean            1                      
system.ruby.Locked_RMW_Write.latency_hist_seqr |           0      0.00%      0.00% |        1011    100.00%    100.00% |           0      0.00%    100.00% |           0      0.00%    100.00% |           0      0.00%    100.00% |           0      0.00%    100.00% |           0      0.00%    100.00% |           0      0.00%    100.00% |           0      0.00%    100.00% |           0      0.00%    100.00%
system.ruby.Locked_RMW_Write.latency_hist_seqr::total         1011                      
system.ruby.Locked_RMW_Write.hit_latency_hist_seqr::bucket_size            1                      
system.ruby.Locked_RMW_Write.hit_latency_hist_seqr::max_bucket            9                      
system.ruby.Locked_RMW_Write.hit_latency_hist_seqr::samples         1011                      
system.ruby.Locked_RMW_Write.hit_latency_hist_seqr::mean            1                      
system.ruby.Locked_RMW_Write.hit_latency_hist_seqr::gmean            1                      
system.ruby.Locked_RMW_Write.hit_latency_hist_seqr |           0      0.00%      0.00% |        1011    100.00%    100.00% |           0      0.00%    100.00% |           0      0.00%    100.00% |           0      0.00%    100.00% |           0      0.00%    100.00% |           0      0.00%    100.00% |           0      0.00%    100.00% |           0      0.00%    100.00% |           0      0.00%    100.00%
system.ruby.Locked_RMW_Write.hit_latency_hist_seqr::total         1011                      
system.ruby.Directory_Controller.Fetch   |        1779     50.18%     50.18% |        1766     49.82%    100.00%
system.ruby.Directory_Controller.Fetch::total         3545                      
system.ruby.Directory_Controller.Memory_Data |        1779     50.18%     50.18% |        1766     49.82%    100.00%
system.ruby.Directory_Controller.Memory_Data::total         3545                      
system.ruby.Directory_Controller.I.Fetch |        1779     50.18%     50.18% |        1766     49.82%    100.00%
system.ruby.Directory_Controller.I.Fetch::total         3545                      
system.ruby.Directory_Controller.IM.Memory_Data |        1779     50.18%     50.18% |        1766     49.82%    100.00%
system.ruby.Directory_Controller.IM.Memory_Data::total         3545                      
system.ruby.L0Cache_Controller.NoNeed_Delay_hit |      102612     61.41%     61.41% |       64489     38.59%    100.00%
system.ruby.L0Cache_Controller.NoNeed_Delay_hit::total       167101                      
system.ruby.L0Cache_Controller.Record_IssueTime_h |      101064     61.28%     61.28% |       63862     38.72%    100.00%
system.ruby.L0Cache_Controller.Record_IssueTime_h::total       164926                      
system.ruby.L0Cache_Controller.Record_IssueTime_m |        2683     49.27%     49.27% |        2762     50.73%    100.00%
system.ruby.L0Cache_Controller.Record_IssueTime_m::total         5445                      
system.ruby.L0Cache_Controller.Add_Histo |        1135     34.73%     34.73% |        2133     65.27%    100.00%
system.ruby.L0Cache_Controller.Add_Histo::total         3268                      
system.ruby.L0Cache_Controller.NP.NoNeed_Delay_hit |      102612     61.41%     61.41% |       64489     38.59%    100.00%
system.ruby.L0Cache_Controller.NP.NoNeed_Delay_hit::total       167101                      
system.ruby.L0Cache_Controller.NP.Record_IssueTime_h |      101064     61.28%     61.28% |       63862     38.72%    100.00%
system.ruby.L0Cache_Controller.NP.Record_IssueTime_h::total       164926                      
system.ruby.L0Cache_Controller.NP.Record_IssueTime_m |        2683     49.27%     49.27% |        2762     50.73%    100.00%
system.ruby.L0Cache_Controller.NP.Record_IssueTime_m::total         5445                      
system.ruby.L0Cache_Controller.NP.Add_Histo |        1135     34.73%     34.73% |        2133     65.27%    100.00%
system.ruby.L0Cache_Controller.NP.Add_Histo::total         3268                      
system.ruby.L1Cache_Controller.Load      |       53243     60.84%     60.84% |       34277     39.16%    100.00%
system.ruby.L1Cache_Controller.Load::total        87520                      
system.ruby.L1Cache_Controller.Ifetch    |       50510     60.96%     60.96% |       32351     39.04%    100.00%
system.ruby.L1Cache_Controller.Ifetch::total        82861                      
system.ruby.L1Cache_Controller.Store     |       25910     62.50%     62.50% |       15546     37.50%    100.00%
system.ruby.L1Cache_Controller.Store::total        41456                      
system.ruby.L1Cache_Controller.Inv       |           1     33.33%     33.33% |           2     66.67%    100.00%
system.ruby.L1Cache_Controller.Inv::total            3                      
system.ruby.L1Cache_Controller.L1_Replacement |        1902     50.00%     50.00% |        1902     50.00%    100.00%
system.ruby.L1Cache_Controller.L1_Replacement::total         3804                      
system.ruby.L1Cache_Controller.Fwd_GETS  |          37     80.43%     80.43% |           9     19.57%    100.00%
system.ruby.L1Cache_Controller.Fwd_GETS::total           46                      
system.ruby.L1Cache_Controller.Data_Exclusive |         206     34.22%     34.22% |         396     65.78%    100.00%
system.ruby.L1Cache_Controller.Data_Exclusive::total          602                      
system.ruby.L1Cache_Controller.DataS_fromL1 |           9     19.57%     19.57% |          37     80.43%    100.00%
system.ruby.L1Cache_Controller.DataS_fromL1::total           46                      
system.ruby.L1Cache_Controller.Data_all_Acks |        1473     80.45%     80.45% |         358     19.55%    100.00%
system.ruby.L1Cache_Controller.Data_all_Acks::total         1831                      
system.ruby.L1Cache_Controller.Data_Exclusive_M |         360     26.39%     26.39% |        1004     73.61%    100.00%
system.ruby.L1Cache_Controller.Data_Exclusive_M::total         1364                      
system.ruby.L1Cache_Controller.Data_all_Acks_M |         775     40.68%     40.68% |        1130     59.32%    100.00%
system.ruby.L1Cache_Controller.Data_all_Acks_M::total         1905                      
system.ruby.L1Cache_Controller.Ack       |           2     66.67%     66.67% |           1     33.33%    100.00%
system.ruby.L1Cache_Controller.Ack::total            3                      
system.ruby.L1Cache_Controller.Ack_all   |           2     66.67%     66.67% |           1     33.33%    100.00%
system.ruby.L1Cache_Controller.Ack_all::total            3                      
system.ruby.L1Cache_Controller.WB_Ack    |         285     20.86%     20.86% |        1081     79.14%    100.00%
system.ruby.L1Cache_Controller.WB_Ack::total         1366                      
system.ruby.L1Cache_Controller.NP.Load   |         607     29.22%     29.22% |        1470     70.78%    100.00%
system.ruby.L1Cache_Controller.NP.Load::total         2077                      
system.ruby.L1Cache_Controller.NP.Ifetch |        2075     61.63%     61.63% |        1292     38.37%    100.00%
system.ruby.L1Cache_Controller.NP.Ifetch::total         3367                      
system.ruby.L1Cache_Controller.NP.Store  |         140     46.05%     46.05% |         164     53.95%    100.00%
system.ruby.L1Cache_Controller.NP.Store::total          304                      
system.ruby.L1Cache_Controller.I.Load    |           1    100.00%    100.00% |           0      0.00%    100.00%
system.ruby.L1Cache_Controller.I.Load::total            1                      
system.ruby.L1Cache_Controller.S.Load    |        1130     44.63%     44.63% |        1402     55.37%    100.00%
system.ruby.L1Cache_Controller.S.Load::total         2532                      
system.ruby.L1Cache_Controller.S.Ifetch  |       48435     60.93%     60.93% |       31058     39.07%    100.00%
system.ruby.L1Cache_Controller.S.Ifetch::total        79493                      
system.ruby.L1Cache_Controller.S.Store   |           2     66.67%     66.67% |           1     33.33%    100.00%
system.ruby.L1Cache_Controller.S.Store::total            3                      
system.ruby.L1Cache_Controller.S.Inv     |           1     33.33%     33.33% |           2     66.67%    100.00%
system.ruby.L1Cache_Controller.S.Inv::total            3                      
system.ruby.L1Cache_Controller.S.L1_Replacement |        1617     66.32%     66.32% |         821     33.68%    100.00%
system.ruby.L1Cache_Controller.S.L1_Replacement::total         2438                      
system.ruby.L1Cache_Controller.E.Load    |       19177     63.48%     63.48% |       11034     36.52%    100.00%
system.ruby.L1Cache_Controller.E.Load::total        30211                      
system.ruby.L1Cache_Controller.E.Store   |          92     11.53%     11.53% |         706     88.47%    100.00%
system.ruby.L1Cache_Controller.E.Store::total          798                      
system.ruby.L1Cache_Controller.E.L1_Replacement |         212     31.45%     31.45% |         462     68.55%    100.00%
system.ruby.L1Cache_Controller.E.L1_Replacement::total          674                      
system.ruby.L1Cache_Controller.E.Fwd_GETS |          36     81.82%     81.82% |           8     18.18%    100.00%
system.ruby.L1Cache_Controller.E.Fwd_GETS::total           44                      
system.ruby.L1Cache_Controller.M.Load    |       32328     61.35%     61.35% |       20370     38.65%    100.00%
system.ruby.L1Cache_Controller.M.Load::total        52698                      
system.ruby.L1Cache_Controller.M.Store   |       25675     63.63%     63.63% |       14675     36.37%    100.00%
system.ruby.L1Cache_Controller.M.Store::total        40350                      
system.ruby.L1Cache_Controller.M.L1_Replacement |          73     10.55%     10.55% |         619     89.45%    100.00%
system.ruby.L1Cache_Controller.M.L1_Replacement::total          692                      
system.ruby.L1Cache_Controller.M.Fwd_GETS |           1     50.00%     50.00% |           1     50.00%    100.00%
system.ruby.L1Cache_Controller.M.Fwd_GETS::total            2                      
system.ruby.L1Cache_Controller.IS.Data_Exclusive |         206     34.22%     34.22% |         396     65.78%    100.00%
system.ruby.L1Cache_Controller.IS.Data_Exclusive::total          602                      
system.ruby.L1Cache_Controller.IS.DataS_fromL1 |           9     19.57%     19.57% |          37     80.43%    100.00%
system.ruby.L1Cache_Controller.IS.DataS_fromL1::total           46                      
system.ruby.L1Cache_Controller.IS.Data_all_Acks |        1333     87.30%     87.30% |         194     12.70%    100.00%
system.ruby.L1Cache_Controller.IS.Data_all_Acks::total         1527                      
system.ruby.L1Cache_Controller.IS.Data_Exclusive_M |         360     26.39%     26.39% |        1004     73.61%    100.00%
system.ruby.L1Cache_Controller.IS.Data_Exclusive_M::total         1364                      
system.ruby.L1Cache_Controller.IS.Data_all_Acks_M |         775     40.68%     40.68% |        1130     59.32%    100.00%
system.ruby.L1Cache_Controller.IS.Data_all_Acks_M::total         1905                      
system.ruby.L1Cache_Controller.IM.Data_all_Acks |         140     46.05%     46.05% |         164     53.95%    100.00%
system.ruby.L1Cache_Controller.IM.Data_all_Acks::total          304                      
system.ruby.L1Cache_Controller.SM.Ack    |           2     66.67%     66.67% |           1     33.33%    100.00%
system.ruby.L1Cache_Controller.SM.Ack::total            3                      
system.ruby.L1Cache_Controller.SM.Ack_all |           2     66.67%     66.67% |           1     33.33%    100.00%
system.ruby.L1Cache_Controller.SM.Ack_all::total            3                      
system.ruby.L1Cache_Controller.M_I.Load  |           0      0.00%      0.00% |           1    100.00%    100.00%
system.ruby.L1Cache_Controller.M_I.Load::total            1                      
system.ruby.L1Cache_Controller.M_I.Ifetch |           0      0.00%      0.00% |           1    100.00%    100.00%
system.ruby.L1Cache_Controller.M_I.Ifetch::total            1                      
system.ruby.L1Cache_Controller.M_I.Store |           1    100.00%    100.00% |           0      0.00%    100.00%
system.ruby.L1Cache_Controller.M_I.Store::total            1                      
system.ruby.L1Cache_Controller.M_I.WB_Ack |         285     20.86%     20.86% |        1081     79.14%    100.00%
system.ruby.L1Cache_Controller.M_I.WB_Ack::total         1366                      
system.ruby.L2Cache_Controller.L1_GET_INSTR |        1681     49.93%     49.93% |        1686     50.07%    100.00%
system.ruby.L2Cache_Controller.L1_GET_INSTR::total         3367                      
system.ruby.L2Cache_Controller.L1_GETS   |        1074     51.68%     51.68% |        1004     48.32%    100.00%
system.ruby.L2Cache_Controller.L1_GETS::total         2078                      
system.ruby.L2Cache_Controller.L1_GETX   |         149     49.01%     49.01% |         155     50.99%    100.00%
system.ruby.L2Cache_Controller.L1_GETX::total          304                      
system.ruby.L2Cache_Controller.L1_UPGRADE |           3    100.00%    100.00% |           0      0.00%    100.00%
system.ruby.L2Cache_Controller.L1_UPGRADE::total            3                      
system.ruby.L2Cache_Controller.L1_PUTX   |         705     51.61%     51.61% |         661     48.39%    100.00%
system.ruby.L2Cache_Controller.L1_PUTX::total         1366                      
system.ruby.L2Cache_Controller.Mem_Data  |        1776     50.11%     50.11% |        1768     49.89%    100.00%
system.ruby.L2Cache_Controller.Mem_Data::total         3544                      
system.ruby.L2Cache_Controller.WB_Data   |           2    100.00%    100.00% |           0      0.00%    100.00%
system.ruby.L2Cache_Controller.WB_Data::total            2                      
system.ruby.L2Cache_Controller.WB_Data_clean |          20     45.45%     45.45% |          24     54.55%    100.00%
system.ruby.L2Cache_Controller.WB_Data_clean::total           44                      
system.ruby.L2Cache_Controller.Unblock   |          22     47.83%     47.83% |          24     52.17%    100.00%
system.ruby.L2Cache_Controller.Unblock::total           46                      
system.ruby.L2Cache_Controller.Exclusive_Unblock |        1161     51.08%     51.08% |        1112     48.92%    100.00%
system.ruby.L2Cache_Controller.Exclusive_Unblock::total         2273                      
system.ruby.L2Cache_Controller.NP.L1_GET_INSTR |         951     49.90%     49.90% |         955     50.10%    100.00%
system.ruby.L2Cache_Controller.NP.L1_GET_INSTR::total         1906                      
system.ruby.L2Cache_Controller.NP.L1_GETS |         688     50.44%     50.44% |         676     49.56%    100.00%
system.ruby.L2Cache_Controller.NP.L1_GETS::total         1364                      
system.ruby.L2Cache_Controller.NP.L1_GETX |         137     49.82%     49.82% |         138     50.18%    100.00%
system.ruby.L2Cache_Controller.NP.L1_GETX::total          275                      
system.ruby.L2Cache_Controller.SS.L1_GET_INSTR |         729     49.93%     49.93% |         731     50.07%    100.00%
system.ruby.L2Cache_Controller.SS.L1_GET_INSTR::total         1460                      
system.ruby.L2Cache_Controller.SS.L1_GETS |          43     65.15%     65.15% |          23     34.85%    100.00%
system.ruby.L2Cache_Controller.SS.L1_GETS::total           66                      
system.ruby.L2Cache_Controller.SS.L1_UPGRADE |           3    100.00%    100.00% |           0      0.00%    100.00%
system.ruby.L2Cache_Controller.SS.L1_UPGRADE::total            3                      
system.ruby.L2Cache_Controller.M.L1_GET_INSTR |           1    100.00%    100.00% |           0      0.00%    100.00%
system.ruby.L2Cache_Controller.M.L1_GET_INSTR::total            1                      
system.ruby.L2Cache_Controller.M.L1_GETS |         321     53.32%     53.32% |         281     46.68%    100.00%
system.ruby.L2Cache_Controller.M.L1_GETS::total          602                      
system.ruby.L2Cache_Controller.M.L1_GETX |          12     41.38%     41.38% |          17     58.62%    100.00%
system.ruby.L2Cache_Controller.M.L1_GETX::total           29                      
system.ruby.L2Cache_Controller.MT.L1_GETS |          22     47.83%     47.83% |          24     52.17%    100.00%
system.ruby.L2Cache_Controller.MT.L1_GETS::total           46                      
system.ruby.L2Cache_Controller.MT.L1_PUTX |         705     51.61%     51.61% |         661     48.39%    100.00%
system.ruby.L2Cache_Controller.MT.L1_PUTX::total         1366                      
system.ruby.L2Cache_Controller.ISS.Mem_Data |         688     50.44%     50.44% |         676     49.56%    100.00%
system.ruby.L2Cache_Controller.ISS.Mem_Data::total         1364                      
system.ruby.L2Cache_Controller.IS.Mem_Data |         951     49.92%     49.92% |         954     50.08%    100.00%
system.ruby.L2Cache_Controller.IS.Mem_Data::total         1905                      
system.ruby.L2Cache_Controller.IM.Mem_Data |         137     49.82%     49.82% |         138     50.18%    100.00%
system.ruby.L2Cache_Controller.IM.Mem_Data::total          275                      
system.ruby.L2Cache_Controller.SS_MB.Exclusive_Unblock |           3    100.00%    100.00% |           0      0.00%    100.00%
system.ruby.L2Cache_Controller.SS_MB.Exclusive_Unblock::total            3                      
system.ruby.L2Cache_Controller.MT_MB.Exclusive_Unblock |        1158     51.01%     51.01% |        1112     48.99%    100.00%
system.ruby.L2Cache_Controller.MT_MB.Exclusive_Unblock::total         2270                      
system.ruby.L2Cache_Controller.MT_IIB.WB_Data |           1    100.00%    100.00% |           0      0.00%    100.00%
system.ruby.L2Cache_Controller.MT_IIB.WB_Data::total            1                      
system.ruby.L2Cache_Controller.MT_IIB.WB_Data_clean |          15     45.45%     45.45% |          18     54.55%    100.00%
system.ruby.L2Cache_Controller.MT_IIB.WB_Data_clean::total           33                      
system.ruby.L2Cache_Controller.MT_IIB.Unblock |           6     50.00%     50.00% |           6     50.00%    100.00%
system.ruby.L2Cache_Controller.MT_IIB.Unblock::total           12                      
system.ruby.L2Cache_Controller.MT_IB.WB_Data |           1    100.00%    100.00% |           0      0.00%    100.00%
system.ruby.L2Cache_Controller.MT_IB.WB_Data::total            1                      
system.ruby.L2Cache_Controller.MT_IB.WB_Data_clean |           5     45.45%     45.45% |           6     54.55%    100.00%
system.ruby.L2Cache_Controller.MT_IB.WB_Data_clean::total           11                      
system.ruby.L2Cache_Controller.MT_SB.Unblock |          16     47.06%     47.06% |          18     52.94%    100.00%
system.ruby.L2Cache_Controller.MT_SB.Unblock::total           34                      
system.switch_cpus0.kern.inst.arm                   0                       # number of arm instructions executed
system.switch_cpus0.kern.inst.quiesce               0                       # number of quiesce instructions executed
system.switch_cpus1.kern.inst.arm                   0                       # number of arm instructions executed
system.switch_cpus1.kern.inst.quiesce               0                       # number of quiesce instructions executed

---------- End Simulation Statistics   ----------
