
---------- Begin Simulation Statistics ----------
sim_seconds                                  0.023049                       # Number of seconds simulated
sim_ticks                                 23049075000                       # Number of ticks simulated
final_tick                               2388039880000                       # Number of ticks from beginning of simulation (restored from checkpoints and never reset)
sim_freq                                 1000000000000                       # Frequency of simulated ticks
host_inst_rate                                 117255                       # Simulator instruction rate (inst/s)
host_op_rate                                   277429                       # Simulator op (including micro ops) rate (op/s)
host_tick_rate                               48341434                       # Simulator tick rate (ticks/s)
host_mem_usage                                3501920                       # Number of bytes of host memory used
host_seconds                                   476.80                       # Real time elapsed on the host
sim_insts                                    55906869                       # Number of instructions simulated
sim_ops                                     132277315                       # Number of ops (including micro ops) simulated
system.voltage_domain.voltage                       1                       # Voltage in Volts
system.clk_domain.clock                          1000                       # Clock period in ticks
system.mem_ctrls.pwrStateResidencyTicks::UNDEFINED 2388039880000                       # Cumulative time (in ticks) in various power states
system.mem_ctrls.bytes_read::.cpu0.inst           128                       # Number of bytes read from this memory
system.mem_ctrls.bytes_read::.cpu0.data           128                       # Number of bytes read from this memory
system.mem_ctrls.bytes_read::.cpu1.inst           256                       # Number of bytes read from this memory
system.mem_ctrls.bytes_read::.cpu1.data           128                       # Number of bytes read from this memory
system.mem_ctrls.bytes_read::.switch_cpus0.dtb.walker        12736                       # Number of bytes read from this memory
system.mem_ctrls.bytes_read::.switch_cpus0.itb.walker         6848                       # Number of bytes read from this memory
system.mem_ctrls.bytes_read::.switch_cpus0.inst       251584                       # Number of bytes read from this memory
system.mem_ctrls.bytes_read::.switch_cpus0.data       739456                       # Number of bytes read from this memory
system.mem_ctrls.bytes_read::.switch_cpus1.dtb.walker        40064                       # Number of bytes read from this memory
system.mem_ctrls.bytes_read::.switch_cpus1.itb.walker        13056                       # Number of bytes read from this memory
system.mem_ctrls.bytes_read::.switch_cpus1.inst      1460992                       # Number of bytes read from this memory
system.mem_ctrls.bytes_read::.switch_cpus1.data      4116032                       # Number of bytes read from this memory
system.mem_ctrls.bytes_read::total            6641408                       # Number of bytes read from this memory
system.mem_ctrls.bytes_inst_read::.cpu0.inst          128                       # Number of instructions bytes read from this memory
system.mem_ctrls.bytes_inst_read::.cpu1.inst          256                       # Number of instructions bytes read from this memory
system.mem_ctrls.bytes_inst_read::.switch_cpus0.inst       251584                       # Number of instructions bytes read from this memory
system.mem_ctrls.bytes_inst_read::.switch_cpus1.inst      1460992                       # Number of instructions bytes read from this memory
system.mem_ctrls.bytes_inst_read::total       1712960                       # Number of instructions bytes read from this memory
system.mem_ctrls.bytes_written::.writebacks      2629248                       # Number of bytes written to this memory
system.mem_ctrls.bytes_written::total         2629248                       # Number of bytes written to this memory
system.mem_ctrls.num_reads::.cpu0.inst              2                       # Number of read requests responded to by this memory
system.mem_ctrls.num_reads::.cpu0.data              2                       # Number of read requests responded to by this memory
system.mem_ctrls.num_reads::.cpu1.inst              4                       # Number of read requests responded to by this memory
system.mem_ctrls.num_reads::.cpu1.data              2                       # Number of read requests responded to by this memory
system.mem_ctrls.num_reads::.switch_cpus0.dtb.walker          199                       # Number of read requests responded to by this memory
system.mem_ctrls.num_reads::.switch_cpus0.itb.walker          107                       # Number of read requests responded to by this memory
system.mem_ctrls.num_reads::.switch_cpus0.inst         3931                       # Number of read requests responded to by this memory
system.mem_ctrls.num_reads::.switch_cpus0.data        11554                       # Number of read requests responded to by this memory
system.mem_ctrls.num_reads::.switch_cpus1.dtb.walker          626                       # Number of read requests responded to by this memory
system.mem_ctrls.num_reads::.switch_cpus1.itb.walker          204                       # Number of read requests responded to by this memory
system.mem_ctrls.num_reads::.switch_cpus1.inst        22828                       # Number of read requests responded to by this memory
system.mem_ctrls.num_reads::.switch_cpus1.data        64313                       # Number of read requests responded to by this memory
system.mem_ctrls.num_reads::total              103772                       # Number of read requests responded to by this memory
system.mem_ctrls.num_writes::.writebacks        41082                       # Number of write requests responded to by this memory
system.mem_ctrls.num_writes::total              41082                       # Number of write requests responded to by this memory
system.mem_ctrls.bw_read::.cpu0.inst             5553                       # Total read bandwidth from this memory (bytes/s)
system.mem_ctrls.bw_read::.cpu0.data             5553                       # Total read bandwidth from this memory (bytes/s)
system.mem_ctrls.bw_read::.cpu1.inst            11107                       # Total read bandwidth from this memory (bytes/s)
system.mem_ctrls.bw_read::.cpu1.data             5553                       # Total read bandwidth from this memory (bytes/s)
system.mem_ctrls.bw_read::.switch_cpus0.dtb.walker       552560                       # Total read bandwidth from this memory (bytes/s)
system.mem_ctrls.bw_read::.switch_cpus0.itb.walker       297105                       # Total read bandwidth from this memory (bytes/s)
system.mem_ctrls.bw_read::.switch_cpus0.inst     10915145                       # Total read bandwidth from this memory (bytes/s)
system.mem_ctrls.bw_read::.switch_cpus0.data     32081808                       # Total read bandwidth from this memory (bytes/s)
system.mem_ctrls.bw_read::.switch_cpus1.dtb.walker      1738204                       # Total read bandwidth from this memory (bytes/s)
system.mem_ctrls.bw_read::.switch_cpus1.itb.walker       566444                       # Total read bandwidth from this memory (bytes/s)
system.mem_ctrls.bw_read::.switch_cpus1.inst     63386145                       # Total read bandwidth from this memory (bytes/s)
system.mem_ctrls.bw_read::.switch_cpus1.data    178576884                       # Total read bandwidth from this memory (bytes/s)
system.mem_ctrls.bw_read::total             288142062                       # Total read bandwidth from this memory (bytes/s)
system.mem_ctrls.bw_inst_read::.cpu0.inst         5553                       # Instruction read bandwidth from this memory (bytes/s)
system.mem_ctrls.bw_inst_read::.cpu1.inst        11107                       # Instruction read bandwidth from this memory (bytes/s)
system.mem_ctrls.bw_inst_read::.switch_cpus0.inst     10915145                       # Instruction read bandwidth from this memory (bytes/s)
system.mem_ctrls.bw_inst_read::.switch_cpus1.inst     63386145                       # Instruction read bandwidth from this memory (bytes/s)
system.mem_ctrls.bw_inst_read::total         74317950                       # Instruction read bandwidth from this memory (bytes/s)
system.mem_ctrls.bw_write::.writebacks      114071736                       # Write bandwidth from this memory (bytes/s)
system.mem_ctrls.bw_write::total            114071736                       # Write bandwidth from this memory (bytes/s)
system.mem_ctrls.bw_total::.writebacks      114071736                       # Total bandwidth to/from this memory (bytes/s)
system.mem_ctrls.bw_total::.cpu0.inst            5553                       # Total bandwidth to/from this memory (bytes/s)
system.mem_ctrls.bw_total::.cpu0.data            5553                       # Total bandwidth to/from this memory (bytes/s)
system.mem_ctrls.bw_total::.cpu1.inst           11107                       # Total bandwidth to/from this memory (bytes/s)
system.mem_ctrls.bw_total::.cpu1.data            5553                       # Total bandwidth to/from this memory (bytes/s)
system.mem_ctrls.bw_total::.switch_cpus0.dtb.walker       552560                       # Total bandwidth to/from this memory (bytes/s)
system.mem_ctrls.bw_total::.switch_cpus0.itb.walker       297105                       # Total bandwidth to/from this memory (bytes/s)
system.mem_ctrls.bw_total::.switch_cpus0.inst     10915145                       # Total bandwidth to/from this memory (bytes/s)
system.mem_ctrls.bw_total::.switch_cpus0.data     32081808                       # Total bandwidth to/from this memory (bytes/s)
system.mem_ctrls.bw_total::.switch_cpus1.dtb.walker      1738204                       # Total bandwidth to/from this memory (bytes/s)
system.mem_ctrls.bw_total::.switch_cpus1.itb.walker       566444                       # Total bandwidth to/from this memory (bytes/s)
system.mem_ctrls.bw_total::.switch_cpus1.inst     63386145                       # Total bandwidth to/from this memory (bytes/s)
system.mem_ctrls.bw_total::.switch_cpus1.data    178576884                       # Total bandwidth to/from this memory (bytes/s)
system.mem_ctrls.bw_total::total            402213798                       # Total bandwidth to/from this memory (bytes/s)
system.mem_ctrls.avgPriority_.writebacks::samples     41081.00                       # Average QoS priority value for accepted requests
system.mem_ctrls.avgPriority_.switch_cpus0.dtb.walker::samples       199.00                       # Average QoS priority value for accepted requests
system.mem_ctrls.avgPriority_.switch_cpus0.itb.walker::samples       107.00                       # Average QoS priority value for accepted requests
system.mem_ctrls.avgPriority_.switch_cpus0.inst::samples      3931.00                       # Average QoS priority value for accepted requests
system.mem_ctrls.avgPriority_.switch_cpus0.data::samples     11549.00                       # Average QoS priority value for accepted requests
system.mem_ctrls.avgPriority_.switch_cpus1.dtb.walker::samples       626.00                       # Average QoS priority value for accepted requests
system.mem_ctrls.avgPriority_.switch_cpus1.itb.walker::samples       204.00                       # Average QoS priority value for accepted requests
system.mem_ctrls.avgPriority_.switch_cpus1.inst::samples     22828.00                       # Average QoS priority value for accepted requests
system.mem_ctrls.avgPriority_.switch_cpus1.data::samples     64214.00                       # Average QoS priority value for accepted requests
system.mem_ctrls.priorityMinLatency      0.000000018750                       # per QoS priority minimum request to response latency (s)
system.mem_ctrls.priorityMaxLatency      0.002941334500                       # per QoS priority maximum request to response latency (s)
system.mem_ctrls.numReadWriteTurnArounds         2232                       # Number of turnarounds from READ to WRITE
system.mem_ctrls.numWriteReadTurnArounds         2232                       # Number of turnarounds from WRITE to READ
system.mem_ctrls.numStayReadState              241237                       # Number of times bus staying in READ state
system.mem_ctrls.numStayWriteState              39229                       # Number of times bus staying in WRITE state
system.mem_ctrls.readReqs                      103762                       # Number of read requests accepted
system.mem_ctrls.writeReqs                      41082                       # Number of write requests accepted
system.mem_ctrls.readBursts                    103762                       # Number of DRAM read bursts, including those serviced by the write queue
system.mem_ctrls.writeBursts                    41082                       # Number of DRAM write bursts, including those merged in the write queue
system.mem_ctrls.bytesReadDRAM                6634112                       # Total number of bytes read from DRAM
system.mem_ctrls.bytesReadWrQ                    6656                       # Total number of bytes read from write queue
system.mem_ctrls.bytesWritten                 2627456                       # Total number of bytes written to DRAM
system.mem_ctrls.bytesReadSys                 6640768                       # Total read bytes from the system interface side
system.mem_ctrls.bytesWrittenSys              2629248                       # Total written bytes from the system interface side
system.mem_ctrls.servicedByWrQ                    104                       # Number of DRAM read bursts serviced by the write queue
system.mem_ctrls.mergedWrBursts                     1                       # Number of DRAM write bursts merged with an existing one
system.mem_ctrls.neitherReadNorWriteReqs            0                       # Number of requests that are neither read nor write
system.mem_ctrls.perBankRdBursts::0              5170                       # Per bank write bursts
system.mem_ctrls.perBankRdBursts::1              6102                       # Per bank write bursts
system.mem_ctrls.perBankRdBursts::2              6546                       # Per bank write bursts
system.mem_ctrls.perBankRdBursts::3              6634                       # Per bank write bursts
system.mem_ctrls.perBankRdBursts::4              5980                       # Per bank write bursts
system.mem_ctrls.perBankRdBursts::5              5286                       # Per bank write bursts
system.mem_ctrls.perBankRdBursts::6              6806                       # Per bank write bursts
system.mem_ctrls.perBankRdBursts::7              6210                       # Per bank write bursts
system.mem_ctrls.perBankRdBursts::8              8339                       # Per bank write bursts
system.mem_ctrls.perBankRdBursts::9              8822                       # Per bank write bursts
system.mem_ctrls.perBankRdBursts::10             6537                       # Per bank write bursts
system.mem_ctrls.perBankRdBursts::11             7896                       # Per bank write bursts
system.mem_ctrls.perBankRdBursts::12             6686                       # Per bank write bursts
system.mem_ctrls.perBankRdBursts::13             5850                       # Per bank write bursts
system.mem_ctrls.perBankRdBursts::14             6099                       # Per bank write bursts
system.mem_ctrls.perBankRdBursts::15             4695                       # Per bank write bursts
system.mem_ctrls.perBankWrBursts::0              1830                       # Per bank write bursts
system.mem_ctrls.perBankWrBursts::1              2788                       # Per bank write bursts
system.mem_ctrls.perBankWrBursts::2              2396                       # Per bank write bursts
system.mem_ctrls.perBankWrBursts::3              2793                       # Per bank write bursts
system.mem_ctrls.perBankWrBursts::4              1971                       # Per bank write bursts
system.mem_ctrls.perBankWrBursts::5              2211                       # Per bank write bursts
system.mem_ctrls.perBankWrBursts::6              2833                       # Per bank write bursts
system.mem_ctrls.perBankWrBursts::7              2565                       # Per bank write bursts
system.mem_ctrls.perBankWrBursts::8              3616                       # Per bank write bursts
system.mem_ctrls.perBankWrBursts::9              3153                       # Per bank write bursts
system.mem_ctrls.perBankWrBursts::10             2422                       # Per bank write bursts
system.mem_ctrls.perBankWrBursts::11             3308                       # Per bank write bursts
system.mem_ctrls.perBankWrBursts::12             2649                       # Per bank write bursts
system.mem_ctrls.perBankWrBursts::13             2249                       # Per bank write bursts
system.mem_ctrls.perBankWrBursts::14             2383                       # Per bank write bursts
system.mem_ctrls.perBankWrBursts::15             1887                       # Per bank write bursts
system.mem_ctrls.numRdRetry                         0                       # Number of times read queue was full causing retry
system.mem_ctrls.numWrRetry                        23                       # Number of times write queue was full causing retry
system.mem_ctrls.totGap                   23045165000                       # Total gap between requests
system.mem_ctrls.readPktSize::0                     0                       # Read request sizes (log2)
system.mem_ctrls.readPktSize::1                     0                       # Read request sizes (log2)
system.mem_ctrls.readPktSize::2                     0                       # Read request sizes (log2)
system.mem_ctrls.readPktSize::3                     0                       # Read request sizes (log2)
system.mem_ctrls.readPktSize::4                     0                       # Read request sizes (log2)
system.mem_ctrls.readPktSize::5                     0                       # Read request sizes (log2)
system.mem_ctrls.readPktSize::6                103762                       # Read request sizes (log2)
system.mem_ctrls.writePktSize::0                    0                       # Write request sizes (log2)
system.mem_ctrls.writePktSize::1                    0                       # Write request sizes (log2)
system.mem_ctrls.writePktSize::2                    0                       # Write request sizes (log2)
system.mem_ctrls.writePktSize::3                    0                       # Write request sizes (log2)
system.mem_ctrls.writePktSize::4                    0                       # Write request sizes (log2)
system.mem_ctrls.writePktSize::5                    0                       # Write request sizes (log2)
system.mem_ctrls.writePktSize::6                41082                       # Write request sizes (log2)
system.mem_ctrls.rdQLenPdf::0                   79574                       # What read queue length does an incoming req see
system.mem_ctrls.rdQLenPdf::1                   18336                       # What read queue length does an incoming req see
system.mem_ctrls.rdQLenPdf::2                    4336                       # What read queue length does an incoming req see
system.mem_ctrls.rdQLenPdf::3                    1127                       # What read queue length does an incoming req see
system.mem_ctrls.rdQLenPdf::4                     224                       # What read queue length does an incoming req see
system.mem_ctrls.rdQLenPdf::5                      44                       # What read queue length does an incoming req see
system.mem_ctrls.rdQLenPdf::6                      14                       # What read queue length does an incoming req see
system.mem_ctrls.rdQLenPdf::7                       3                       # What read queue length does an incoming req see
system.mem_ctrls.rdQLenPdf::8                       0                       # What read queue length does an incoming req see
system.mem_ctrls.rdQLenPdf::9                       0                       # What read queue length does an incoming req see
system.mem_ctrls.rdQLenPdf::10                      0                       # What read queue length does an incoming req see
system.mem_ctrls.rdQLenPdf::11                      0                       # What read queue length does an incoming req see
system.mem_ctrls.rdQLenPdf::12                      0                       # What read queue length does an incoming req see
system.mem_ctrls.rdQLenPdf::13                      0                       # What read queue length does an incoming req see
system.mem_ctrls.rdQLenPdf::14                      0                       # What read queue length does an incoming req see
system.mem_ctrls.rdQLenPdf::15                      0                       # What read queue length does an incoming req see
system.mem_ctrls.rdQLenPdf::16                      0                       # What read queue length does an incoming req see
system.mem_ctrls.rdQLenPdf::17                      0                       # What read queue length does an incoming req see
system.mem_ctrls.rdQLenPdf::18                      0                       # What read queue length does an incoming req see
system.mem_ctrls.rdQLenPdf::19                      0                       # What read queue length does an incoming req see
system.mem_ctrls.rdQLenPdf::20                      0                       # What read queue length does an incoming req see
system.mem_ctrls.rdQLenPdf::21                      0                       # What read queue length does an incoming req see
system.mem_ctrls.rdQLenPdf::22                      0                       # What read queue length does an incoming req see
system.mem_ctrls.rdQLenPdf::23                      0                       # What read queue length does an incoming req see
system.mem_ctrls.rdQLenPdf::24                      0                       # What read queue length does an incoming req see
system.mem_ctrls.rdQLenPdf::25                      0                       # What read queue length does an incoming req see
system.mem_ctrls.rdQLenPdf::26                      0                       # What read queue length does an incoming req see
system.mem_ctrls.rdQLenPdf::27                      0                       # What read queue length does an incoming req see
system.mem_ctrls.rdQLenPdf::28                      0                       # What read queue length does an incoming req see
system.mem_ctrls.rdQLenPdf::29                      0                       # What read queue length does an incoming req see
system.mem_ctrls.rdQLenPdf::30                      0                       # What read queue length does an incoming req see
system.mem_ctrls.rdQLenPdf::31                      0                       # What read queue length does an incoming req see
system.mem_ctrls.wrQLenPdf::0                       1                       # What write queue length does an incoming req see
system.mem_ctrls.wrQLenPdf::1                       1                       # What write queue length does an incoming req see
system.mem_ctrls.wrQLenPdf::2                       1                       # What write queue length does an incoming req see
system.mem_ctrls.wrQLenPdf::3                       1                       # What write queue length does an incoming req see
system.mem_ctrls.wrQLenPdf::4                       1                       # What write queue length does an incoming req see
system.mem_ctrls.wrQLenPdf::5                       1                       # What write queue length does an incoming req see
system.mem_ctrls.wrQLenPdf::6                       1                       # What write queue length does an incoming req see
system.mem_ctrls.wrQLenPdf::7                       1                       # What write queue length does an incoming req see
system.mem_ctrls.wrQLenPdf::8                       1                       # What write queue length does an incoming req see
system.mem_ctrls.wrQLenPdf::9                       1                       # What write queue length does an incoming req see
system.mem_ctrls.wrQLenPdf::10                      1                       # What write queue length does an incoming req see
system.mem_ctrls.wrQLenPdf::11                      1                       # What write queue length does an incoming req see
system.mem_ctrls.wrQLenPdf::12                      1                       # What write queue length does an incoming req see
system.mem_ctrls.wrQLenPdf::13                      1                       # What write queue length does an incoming req see
system.mem_ctrls.wrQLenPdf::14                      1                       # What write queue length does an incoming req see
system.mem_ctrls.wrQLenPdf::15                    492                       # What write queue length does an incoming req see
system.mem_ctrls.wrQLenPdf::16                    650                       # What write queue length does an incoming req see
system.mem_ctrls.wrQLenPdf::17                   1973                       # What write queue length does an incoming req see
system.mem_ctrls.wrQLenPdf::18                   2088                       # What write queue length does an incoming req see
system.mem_ctrls.wrQLenPdf::19                   2205                       # What write queue length does an incoming req see
system.mem_ctrls.wrQLenPdf::20                   2205                       # What write queue length does an incoming req see
system.mem_ctrls.wrQLenPdf::21                   2207                       # What write queue length does an incoming req see
system.mem_ctrls.wrQLenPdf::22                   2258                       # What write queue length does an incoming req see
system.mem_ctrls.wrQLenPdf::23                   2388                       # What write queue length does an incoming req see
system.mem_ctrls.wrQLenPdf::24                   2391                       # What write queue length does an incoming req see
system.mem_ctrls.wrQLenPdf::25                   2542                       # What write queue length does an incoming req see
system.mem_ctrls.wrQLenPdf::26                   2723                       # What write queue length does an incoming req see
system.mem_ctrls.wrQLenPdf::27                   2577                       # What write queue length does an incoming req see
system.mem_ctrls.wrQLenPdf::28                   2479                       # What write queue length does an incoming req see
system.mem_ctrls.wrQLenPdf::29                   2548                       # What write queue length does an incoming req see
system.mem_ctrls.wrQLenPdf::30                   2554                       # What write queue length does an incoming req see
system.mem_ctrls.wrQLenPdf::31                   2440                       # What write queue length does an incoming req see
system.mem_ctrls.wrQLenPdf::32                   2445                       # What write queue length does an incoming req see
system.mem_ctrls.wrQLenPdf::33                    207                       # What write queue length does an incoming req see
system.mem_ctrls.wrQLenPdf::34                    160                       # What write queue length does an incoming req see
system.mem_ctrls.wrQLenPdf::35                    146                       # What write queue length does an incoming req see
system.mem_ctrls.wrQLenPdf::36                     98                       # What write queue length does an incoming req see
system.mem_ctrls.wrQLenPdf::37                     75                       # What write queue length does an incoming req see
system.mem_ctrls.wrQLenPdf::38                     47                       # What write queue length does an incoming req see
system.mem_ctrls.wrQLenPdf::39                     42                       # What write queue length does an incoming req see
system.mem_ctrls.wrQLenPdf::40                     51                       # What write queue length does an incoming req see
system.mem_ctrls.wrQLenPdf::41                     33                       # What write queue length does an incoming req see
system.mem_ctrls.wrQLenPdf::42                     67                       # What write queue length does an incoming req see
system.mem_ctrls.wrQLenPdf::43                     46                       # What write queue length does an incoming req see
system.mem_ctrls.wrQLenPdf::44                     44                       # What write queue length does an incoming req see
system.mem_ctrls.wrQLenPdf::45                     34                       # What write queue length does an incoming req see
system.mem_ctrls.wrQLenPdf::46                     63                       # What write queue length does an incoming req see
system.mem_ctrls.wrQLenPdf::47                     48                       # What write queue length does an incoming req see
system.mem_ctrls.wrQLenPdf::48                     51                       # What write queue length does an incoming req see
system.mem_ctrls.wrQLenPdf::49                     52                       # What write queue length does an incoming req see
system.mem_ctrls.wrQLenPdf::50                     71                       # What write queue length does an incoming req see
system.mem_ctrls.wrQLenPdf::51                     50                       # What write queue length does an incoming req see
system.mem_ctrls.wrQLenPdf::52                     51                       # What write queue length does an incoming req see
system.mem_ctrls.wrQLenPdf::53                     53                       # What write queue length does an incoming req see
system.mem_ctrls.wrQLenPdf::54                     49                       # What write queue length does an incoming req see
system.mem_ctrls.wrQLenPdf::55                     45                       # What write queue length does an incoming req see
system.mem_ctrls.wrQLenPdf::56                     37                       # What write queue length does an incoming req see
system.mem_ctrls.wrQLenPdf::57                     57                       # What write queue length does an incoming req see
system.mem_ctrls.wrQLenPdf::58                     40                       # What write queue length does an incoming req see
system.mem_ctrls.wrQLenPdf::59                     36                       # What write queue length does an incoming req see
system.mem_ctrls.wrQLenPdf::60                     17                       # What write queue length does an incoming req see
system.mem_ctrls.wrQLenPdf::61                     33                       # What write queue length does an incoming req see
system.mem_ctrls.wrQLenPdf::62                     40                       # What write queue length does an incoming req see
system.mem_ctrls.wrQLenPdf::63                     58                       # What write queue length does an incoming req see
system.mem_ctrls.bytesPerActivate::samples        44698                       # Bytes accessed per row activation
system.mem_ctrls.bytesPerActivate::mean    207.201754                       # Bytes accessed per row activation
system.mem_ctrls.bytesPerActivate::gmean   126.616617                       # Bytes accessed per row activation
system.mem_ctrls.bytesPerActivate::stdev   260.922172                       # Bytes accessed per row activation
system.mem_ctrls.bytesPerActivate::0-127        23618     52.84%     52.84% # Bytes accessed per row activation
system.mem_ctrls.bytesPerActivate::128-255        10668     23.87%     76.71% # Bytes accessed per row activation
system.mem_ctrls.bytesPerActivate::256-383         3497      7.82%     84.53% # Bytes accessed per row activation
system.mem_ctrls.bytesPerActivate::384-511         1663      3.72%     88.25% # Bytes accessed per row activation
system.mem_ctrls.bytesPerActivate::512-639         1012      2.26%     90.51% # Bytes accessed per row activation
system.mem_ctrls.bytesPerActivate::640-767          680      1.52%     92.04% # Bytes accessed per row activation
system.mem_ctrls.bytesPerActivate::768-895          483      1.08%     93.12% # Bytes accessed per row activation
system.mem_ctrls.bytesPerActivate::896-1023          393      0.88%     94.00% # Bytes accessed per row activation
system.mem_ctrls.bytesPerActivate::1024-1151         2684      6.00%    100.00% # Bytes accessed per row activation
system.mem_ctrls.bytesPerActivate::total        44698                       # Bytes accessed per row activation
system.mem_ctrls.rdPerTurnAround::samples         2232                       # Reads before turning the bus around for writes
system.mem_ctrls.rdPerTurnAround::mean      46.435932                       # Reads before turning the bus around for writes
system.mem_ctrls.rdPerTurnAround::stdev    468.240639                       # Reads before turning the bus around for writes
system.mem_ctrls.rdPerTurnAround::0-1023         2230     99.91%     99.91% # Reads before turning the bus around for writes
system.mem_ctrls.rdPerTurnAround::2048-3071            1      0.04%     99.96% # Reads before turning the bus around for writes
system.mem_ctrls.rdPerTurnAround::21504-22527            1      0.04%    100.00% # Reads before turning the bus around for writes
system.mem_ctrls.rdPerTurnAround::total          2232                       # Reads before turning the bus around for writes
system.mem_ctrls.wrPerTurnAround::samples         2232                       # Writes before turning the bus around for reads
system.mem_ctrls.wrPerTurnAround::mean      18.393369                       # Writes before turning the bus around for reads
system.mem_ctrls.wrPerTurnAround::gmean     17.517287                       # Writes before turning the bus around for reads
system.mem_ctrls.wrPerTurnAround::stdev      8.594783                       # Writes before turning the bus around for reads
system.mem_ctrls.wrPerTurnAround::16-17          1663     74.51%     74.51% # Writes before turning the bus around for reads
system.mem_ctrls.wrPerTurnAround::18-19           383     17.16%     91.67% # Writes before turning the bus around for reads
system.mem_ctrls.wrPerTurnAround::20-21            26      1.16%     92.83% # Writes before turning the bus around for reads
system.mem_ctrls.wrPerTurnAround::22-23            16      0.72%     93.55% # Writes before turning the bus around for reads
system.mem_ctrls.wrPerTurnAround::24-25             9      0.40%     93.95% # Writes before turning the bus around for reads
system.mem_ctrls.wrPerTurnAround::26-27             7      0.31%     94.27% # Writes before turning the bus around for reads
system.mem_ctrls.wrPerTurnAround::28-29             5      0.22%     94.49% # Writes before turning the bus around for reads
system.mem_ctrls.wrPerTurnAround::30-31             4      0.18%     94.67% # Writes before turning the bus around for reads
system.mem_ctrls.wrPerTurnAround::32-33            31      1.39%     96.06% # Writes before turning the bus around for reads
system.mem_ctrls.wrPerTurnAround::34-35             1      0.04%     96.10% # Writes before turning the bus around for reads
system.mem_ctrls.wrPerTurnAround::36-37             4      0.18%     96.28% # Writes before turning the bus around for reads
system.mem_ctrls.wrPerTurnAround::38-39             7      0.31%     96.59% # Writes before turning the bus around for reads
system.mem_ctrls.wrPerTurnAround::40-41             7      0.31%     96.91% # Writes before turning the bus around for reads
system.mem_ctrls.wrPerTurnAround::42-43             6      0.27%     97.18% # Writes before turning the bus around for reads
system.mem_ctrls.wrPerTurnAround::44-45             5      0.22%     97.40% # Writes before turning the bus around for reads
system.mem_ctrls.wrPerTurnAround::46-47             3      0.13%     97.54% # Writes before turning the bus around for reads
system.mem_ctrls.wrPerTurnAround::48-49             3      0.13%     97.67% # Writes before turning the bus around for reads
system.mem_ctrls.wrPerTurnAround::50-51             5      0.22%     97.89% # Writes before turning the bus around for reads
system.mem_ctrls.wrPerTurnAround::52-53             2      0.09%     97.98% # Writes before turning the bus around for reads
system.mem_ctrls.wrPerTurnAround::54-55             3      0.13%     98.12% # Writes before turning the bus around for reads
system.mem_ctrls.wrPerTurnAround::56-57             3      0.13%     98.25% # Writes before turning the bus around for reads
system.mem_ctrls.wrPerTurnAround::58-59             4      0.18%     98.43% # Writes before turning the bus around for reads
system.mem_ctrls.wrPerTurnAround::60-61             1      0.04%     98.48% # Writes before turning the bus around for reads
system.mem_ctrls.wrPerTurnAround::62-63             2      0.09%     98.57% # Writes before turning the bus around for reads
system.mem_ctrls.wrPerTurnAround::64-65            16      0.72%     99.28% # Writes before turning the bus around for reads
system.mem_ctrls.wrPerTurnAround::66-67             3      0.13%     99.42% # Writes before turning the bus around for reads
system.mem_ctrls.wrPerTurnAround::68-69             1      0.04%     99.46% # Writes before turning the bus around for reads
system.mem_ctrls.wrPerTurnAround::72-73             2      0.09%     99.55% # Writes before turning the bus around for reads
system.mem_ctrls.wrPerTurnAround::76-77             3      0.13%     99.69% # Writes before turning the bus around for reads
system.mem_ctrls.wrPerTurnAround::80-81             3      0.13%     99.82% # Writes before turning the bus around for reads
system.mem_ctrls.wrPerTurnAround::82-83             1      0.04%     99.87% # Writes before turning the bus around for reads
system.mem_ctrls.wrPerTurnAround::94-95             1      0.04%     99.91% # Writes before turning the bus around for reads
system.mem_ctrls.wrPerTurnAround::108-109            1      0.04%     99.96% # Writes before turning the bus around for reads
system.mem_ctrls.wrPerTurnAround::124-125            1      0.04%    100.00% # Writes before turning the bus around for reads
system.mem_ctrls.wrPerTurnAround::total          2232                       # Writes before turning the bus around for reads
system.mem_ctrls.masterReadBytes::.switch_cpus0.dtb.walker        12736                       # Per-master bytes read from memory
system.mem_ctrls.masterReadBytes::.switch_cpus0.itb.walker         6848                       # Per-master bytes read from memory
system.mem_ctrls.masterReadBytes::.switch_cpus0.inst       251584                       # Per-master bytes read from memory
system.mem_ctrls.masterReadBytes::.switch_cpus0.data       739136                       # Per-master bytes read from memory
system.mem_ctrls.masterReadBytes::.switch_cpus1.dtb.walker        40064                       # Per-master bytes read from memory
system.mem_ctrls.masterReadBytes::.switch_cpus1.itb.walker        13056                       # Per-master bytes read from memory
system.mem_ctrls.masterReadBytes::.switch_cpus1.inst      1460992                       # Per-master bytes read from memory
system.mem_ctrls.masterReadBytes::.switch_cpus1.data      4109696                       # Per-master bytes read from memory
system.mem_ctrls.masterWriteBytes::.writebacks      2627456                       # Per-master bytes write to memory
system.mem_ctrls.masterReadRate::.switch_cpus0.dtb.walker 552560.135276578367                       # Per-master bytes read from memory rate (Bytes/sec)
system.mem_ctrls.masterReadRate::.switch_cpus0.itb.walker 297105.198364793381                       # Per-master bytes read from memory rate (Bytes/sec)
system.mem_ctrls.masterReadRate::.switch_cpus0.inst 10915145.184785073623                       # Per-master bytes read from memory rate (Bytes/sec)
system.mem_ctrls.masterReadRate::.switch_cpus0.data 32067924.634719617665                       # Per-master bytes read from memory rate (Bytes/sec)
system.mem_ctrls.masterReadRate::.switch_cpus1.dtb.walker 1738204.244638884673                       # Per-master bytes read from memory rate (Bytes/sec)
system.mem_ctrls.masterReadRate::.switch_cpus1.itb.walker 566443.555760914460                       # Per-master bytes read from memory rate (Bytes/sec)
system.mem_ctrls.masterReadRate::.switch_cpus1.inst 63386144.563285082579                       # Per-master bytes read from memory rate (Bytes/sec)
system.mem_ctrls.masterReadRate::.switch_cpus1.data 178301992.596232175827                       # Per-master bytes read from memory rate (Bytes/sec)
system.mem_ctrls.masterWriteRate::.writebacks 113993988.912787184119                       # Per-master bytes write to memory rate (Bytes/sec)
system.mem_ctrls.masterReadAccesses::.switch_cpus0.dtb.walker          199                       # Per-master read serviced memory accesses
system.mem_ctrls.masterReadAccesses::.switch_cpus0.itb.walker          107                       # Per-master read serviced memory accesses
system.mem_ctrls.masterReadAccesses::.switch_cpus0.inst         3931                       # Per-master read serviced memory accesses
system.mem_ctrls.masterReadAccesses::.switch_cpus0.data        11554                       # Per-master read serviced memory accesses
system.mem_ctrls.masterReadAccesses::.switch_cpus1.dtb.walker          626                       # Per-master read serviced memory accesses
system.mem_ctrls.masterReadAccesses::.switch_cpus1.itb.walker          204                       # Per-master read serviced memory accesses
system.mem_ctrls.masterReadAccesses::.switch_cpus1.inst        22828                       # Per-master read serviced memory accesses
system.mem_ctrls.masterReadAccesses::.switch_cpus1.data        64313                       # Per-master read serviced memory accesses
system.mem_ctrls.masterWriteAccesses::.writebacks        41082                       # Per-master write serviced memory accesses
system.mem_ctrls.masterReadTotalLat::.switch_cpus0.dtb.walker     10181250                       # Per-master read total memory access latency
system.mem_ctrls.masterReadTotalLat::.switch_cpus0.itb.walker      5092250                       # Per-master read total memory access latency
system.mem_ctrls.masterReadTotalLat::.switch_cpus0.inst    155268000                       # Per-master read total memory access latency
system.mem_ctrls.masterReadTotalLat::.switch_cpus0.data    445023250                       # Per-master read total memory access latency
system.mem_ctrls.masterReadTotalLat::.switch_cpus1.dtb.walker     36204250                       # Per-master read total memory access latency
system.mem_ctrls.masterReadTotalLat::.switch_cpus1.itb.walker     10756500                       # Per-master read total memory access latency
system.mem_ctrls.masterReadTotalLat::.switch_cpus1.inst    985723750                       # Per-master read total memory access latency
system.mem_ctrls.masterReadTotalLat::.switch_cpus1.data   2515547000                       # Per-master read total memory access latency
system.mem_ctrls.masterWriteTotalLat::.writebacks 509187919250                       # Per-master write total memory access latency
system.mem_ctrls.masterReadAvgLat::.switch_cpus0.dtb.walker     51162.06                       # Per-master read average memory access latency
system.mem_ctrls.masterReadAvgLat::.switch_cpus0.itb.walker     47591.12                       # Per-master read average memory access latency
system.mem_ctrls.masterReadAvgLat::.switch_cpus0.inst     39498.35                       # Per-master read average memory access latency
system.mem_ctrls.masterReadAvgLat::.switch_cpus0.data     38516.81                       # Per-master read average memory access latency
system.mem_ctrls.masterReadAvgLat::.switch_cpus1.dtb.walker     57834.27                       # Per-master read average memory access latency
system.mem_ctrls.masterReadAvgLat::.switch_cpus1.itb.walker     52727.94                       # Per-master read average memory access latency
system.mem_ctrls.masterReadAvgLat::.switch_cpus1.inst     43180.47                       # Per-master read average memory access latency
system.mem_ctrls.masterReadAvgLat::.switch_cpus1.data     39114.13                       # Per-master read average memory access latency
system.mem_ctrls.masterWriteAvgLat::.writebacks  12394428.69                       # Per-master write average memory access latency
system.mem_ctrls.totQLat                   2220208750                       # Total ticks spent queuing
system.mem_ctrls.totMemAccLat              4163796250                       # Total ticks spent from burst creation until serviced by the DRAM
system.mem_ctrls.totBusLat                  518290000                       # Total ticks spent in databus transfers
system.mem_ctrls.avgQLat                     21418.60                       # Average queueing delay per DRAM burst
system.mem_ctrls.avgBusLat                    5000.00                       # Average bus latency per DRAM burst
system.mem_ctrls.avgMemAccLat                40168.60                       # Average memory access latency per DRAM burst
system.mem_ctrls.avgRdBW                       287.83                       # Average DRAM read bandwidth in MiByte/s
system.mem_ctrls.avgWrBW                       113.99                       # Average achieved write bandwidth in MiByte/s
system.mem_ctrls.avgRdBWSys                    288.11                       # Average system read bandwidth in MiByte/s
system.mem_ctrls.avgWrBWSys                    114.07                       # Average system write bandwidth in MiByte/s
system.mem_ctrls.peakBW                      12800.00                       # Theoretical peak bandwidth in MiByte/s
system.mem_ctrls.busUtil                         3.14                       # Data bus utilization in percentage
system.mem_ctrls.busUtilRead                     2.25                       # Data bus utilization in percentage for reads
system.mem_ctrls.busUtilWrite                    0.89                       # Data bus utilization in percentage for writes
system.mem_ctrls.avgRdQLen                       1.18                       # Average read queue length when enqueuing
system.mem_ctrls.avgWrQLen                      23.34                       # Average write queue length when enqueuing
system.mem_ctrls.readRowHits                    75956                       # Number of row buffer hits during reads
system.mem_ctrls.writeRowHits                   24057                       # Number of row buffer hits during writes
system.mem_ctrls.readRowHitRate                 73.28                       # Row buffer hit rate for reads
system.mem_ctrls.writeRowHitRate                58.56                       # Row buffer hit rate for writes
system.mem_ctrls.avgGap                     159103.35                       # Average gap between requests
system.mem_ctrls.pageHitRate                    69.10                       # Row buffer hit rate, read and write combined
system.mem_ctrls_0.actEnergy                153831300                       # Energy for activate commands per rank (pJ)
system.mem_ctrls_0.preEnergy                 81763275                       # Energy for precharge commands per rank (pJ)
system.mem_ctrls_0.readEnergy               347960760                       # Energy for read commands per rank (pJ)
system.mem_ctrls_0.writeEnergy              101200140                       # Energy for write commands per rank (pJ)
system.mem_ctrls_0.refreshEnergy         1544590320.000000                       # Energy for refresh commands per rank (pJ)
system.mem_ctrls_0.actBackEnergy           1632749040                       # Energy for active background per rank (pJ)
system.mem_ctrls_0.preBackEnergy             69806880                       # Energy for precharge background per rank (pJ)
system.mem_ctrls_0.actPowerDownEnergy      5076748320                       # Energy for active power-down per rank (pJ)
system.mem_ctrls_0.prePowerDownEnergy      1828086240                       # Energy for precharge power-down per rank (pJ)
system.mem_ctrls_0.selfRefreshEnergy        980498640                       # Energy for self refresh per rank (pJ)
system.mem_ctrls_0.totalEnergy            11817765225                       # Total energy per rank (pJ)
system.mem_ctrls_0.averagePower            512.721887                       # Core power per rank (mW)
system.mem_ctrls_0.totalIdleTime          19280665750                       # Total Idle time Per DRAM Rank
system.mem_ctrls_0.memoryStateTime::IDLE     99796750                       # Time in different power states
system.mem_ctrls_0.memoryStateTime::REF     653380000                       # Time in different power states
system.mem_ctrls_0.memoryStateTime::SREF   3391625500                       # Time in different power states
system.mem_ctrls_0.memoryStateTime::PRE_PDN   4760697250                       # Time in different power states
system.mem_ctrls_0.memoryStateTime::ACT    3009949000                       # Time in different power states
system.mem_ctrls_0.memoryStateTime::ACT_PDN  11133615500                       # Time in different power states
system.mem_ctrls_1.actEnergy                165319560                       # Energy for activate commands per rank (pJ)
system.mem_ctrls_1.preEnergy                 87865635                       # Energy for precharge commands per rank (pJ)
system.mem_ctrls_1.readEnergy               392157360                       # Energy for read commands per rank (pJ)
system.mem_ctrls_1.writeEnergy              113101740                       # Energy for write commands per rank (pJ)
system.mem_ctrls_1.refreshEnergy         1589459040.000000                       # Energy for refresh commands per rank (pJ)
system.mem_ctrls_1.actBackEnergy           1621634040                       # Energy for active background per rank (pJ)
system.mem_ctrls_1.preBackEnergy             68706720                       # Energy for precharge background per rank (pJ)
system.mem_ctrls_1.actPowerDownEnergy      5414233920                       # Energy for active power-down per rank (pJ)
system.mem_ctrls_1.prePowerDownEnergy      1767572640                       # Energy for precharge power-down per rank (pJ)
system.mem_ctrls_1.selfRefreshEnergy        830114100                       # Energy for self refresh per rank (pJ)
system.mem_ctrls_1.totalEnergy            12051977745                       # Total energy per rank (pJ)
system.mem_ctrls_1.averagePower            522.883358                       # Core power per rank (mW)
system.mem_ctrls_1.totalIdleTime          19306049250                       # Total Idle time Per DRAM Rank
system.mem_ctrls_1.memoryStateTime::IDLE     97787500                       # Time in different power states
system.mem_ctrls_1.memoryStateTime::REF     672360000                       # Time in different power states
system.mem_ctrls_1.memoryStateTime::SREF   2833503000                       # Time in different power states
system.mem_ctrls_1.memoryStateTime::PRE_PDN   4603045250                       # Time in different power states
system.mem_ctrls_1.memoryStateTime::ACT    2968939250                       # Time in different power states
system.mem_ctrls_1.memoryStateTime::ACT_PDN  11873429000                       # Time in different power states
system.pwrStateResidencyTicks::UNDEFINED 2388039880000                       # Cumulative time (in ticks) in various power states
system.apicbridge.pwrStateResidencyTicks::UNDEFINED 2388039880000                       # Cumulative time (in ticks) in various power states
system.bridge.pwrStateResidencyTicks::UNDEFINED 2388039880000                       # Cumulative time (in ticks) in various power states
system.cpu_voltage_domain.voltage                   1                       # Voltage in Volts
system.cpu_clk_domain.clock                       500                       # Clock period in ticks
system.cpu0.dtb.walker.pwrStateResidencyTicks::UNDEFINED 2388039880000                       # Cumulative time (in ticks) in various power states
system.cpu0.dtb.rdAccesses                          4                       # TLB accesses on read requests
system.cpu0.dtb.wrAccesses                          0                       # TLB accesses on write requests
system.cpu0.dtb.rdMisses                            0                       # TLB misses on read requests
system.cpu0.dtb.wrMisses                            0                       # TLB misses on write requests
system.cpu0.apic_clk_domain.clock                8000                       # Clock period in ticks
system.cpu0.interrupts.pwrStateResidencyTicks::UNDEFINED 2388039880000                       # Cumulative time (in ticks) in various power states
system.cpu0.itb.walker.pwrStateResidencyTicks::UNDEFINED 2388039880000                       # Cumulative time (in ticks) in various power states
system.cpu0.itb.rdAccesses                          0                       # TLB accesses on read requests
system.cpu0.itb.wrAccesses                          8                       # TLB accesses on write requests
system.cpu0.itb.rdMisses                            0                       # TLB misses on read requests
system.cpu0.itb.wrMisses                            0                       # TLB misses on write requests
system.cpu0.numPwrStateTransitions                  1                       # Number of power state transitions
system.cpu0.pwrStateResidencyTicks::ON          11000                       # Cumulative time (in ticks) in various power states
system.cpu0.pwrStateResidencyTicks::OFF   23049064000                       # Cumulative time (in ticks) in various power states
system.cpu0.numCycles                              22                       # number of cpu cycles simulated
system.cpu0.numWorkItemsStarted                     0                       # number of work items this cpu started
system.cpu0.numWorkItemsCompleted                   0                       # number of work items this cpu completed
system.cpu0.kern.inst.arm                           0                       # number of arm instructions executed
system.cpu0.kern.inst.quiesce                       0                       # number of quiesce instructions executed
system.cpu0.committedInsts                          7                       # Number of instructions committed
system.cpu0.committedOps                           21                       # Number of ops (including micro ops) committed
system.cpu0.num_int_alu_accesses                    9                       # Number of integer alu accesses
system.cpu0.num_fp_alu_accesses                    12                       # Number of float alu accesses
system.cpu0.num_vec_alu_accesses                    0                       # Number of vector alu accesses
system.cpu0.num_func_calls                          0                       # number of times a function call or return occured
system.cpu0.num_conditional_control_insts            2                       # number of instructions that are conditional controls
system.cpu0.num_int_insts                           9                       # number of integer instructions
system.cpu0.num_fp_insts                           12                       # number of float instructions
system.cpu0.num_vec_insts                           0                       # number of vector instructions
system.cpu0.num_int_register_reads                 20                       # number of times the integer registers were read
system.cpu0.num_int_register_writes                 4                       # number of times the integer registers were written
system.cpu0.num_fp_register_reads                  18                       # number of times the floating registers were read
system.cpu0.num_fp_register_writes                 12                       # number of times the floating registers were written
system.cpu0.num_vec_register_reads                  0                       # number of times the vector registers were read
system.cpu0.num_vec_register_writes                 0                       # number of times the vector registers were written
system.cpu0.num_cc_register_reads                  10                       # number of times the CC registers were read
system.cpu0.num_cc_register_writes                  2                       # number of times the CC registers were written
system.cpu0.num_mem_refs                            4                       # number of memory refs
system.cpu0.num_load_insts                          4                       # Number of load instructions
system.cpu0.num_store_insts                         0                       # Number of store instructions
system.cpu0.num_idle_cycles                         0                       # Number of idle cycles
system.cpu0.num_busy_cycles                        22                       # Number of busy cycles
system.cpu0.not_idle_fraction                       1                       # Percentage of non-idle cycles
system.cpu0.idle_fraction                           0                       # Percentage of idle cycles
system.cpu0.Branches                                4                       # Number of branches fetched
system.cpu0.op_class::No_OpClass                    4     19.05%     19.05% # Class of executed instruction
system.cpu0.op_class::IntAlu                        5     23.81%     42.86% # Class of executed instruction
system.cpu0.op_class::IntMult                       0      0.00%     42.86% # Class of executed instruction
system.cpu0.op_class::IntDiv                        0      0.00%     42.86% # Class of executed instruction
system.cpu0.op_class::FloatAdd                      1      4.76%     47.62% # Class of executed instruction
system.cpu0.op_class::FloatCmp                      0      0.00%     47.62% # Class of executed instruction
system.cpu0.op_class::FloatCvt                      0      0.00%     47.62% # Class of executed instruction
system.cpu0.op_class::FloatMult                     0      0.00%     47.62% # Class of executed instruction
system.cpu0.op_class::FloatMultAcc                  0      0.00%     47.62% # Class of executed instruction
system.cpu0.op_class::FloatDiv                      0      0.00%     47.62% # Class of executed instruction
system.cpu0.op_class::FloatMisc                     0      0.00%     47.62% # Class of executed instruction
system.cpu0.op_class::FloatSqrt                     0      0.00%     47.62% # Class of executed instruction
system.cpu0.op_class::SimdAdd                       0      0.00%     47.62% # Class of executed instruction
system.cpu0.op_class::SimdAddAcc                    0      0.00%     47.62% # Class of executed instruction
system.cpu0.op_class::SimdAlu                       2      9.52%     57.14% # Class of executed instruction
system.cpu0.op_class::SimdCmp                       0      0.00%     57.14% # Class of executed instruction
system.cpu0.op_class::SimdCvt                       4     19.05%     76.19% # Class of executed instruction
system.cpu0.op_class::SimdMisc                      0      0.00%     76.19% # Class of executed instruction
system.cpu0.op_class::SimdMult                      0      0.00%     76.19% # Class of executed instruction
system.cpu0.op_class::SimdMultAcc                   0      0.00%     76.19% # Class of executed instruction
system.cpu0.op_class::SimdShift                     1      4.76%     80.95% # Class of executed instruction
system.cpu0.op_class::SimdShiftAcc                  0      0.00%     80.95% # Class of executed instruction
system.cpu0.op_class::SimdSqrt                      0      0.00%     80.95% # Class of executed instruction
system.cpu0.op_class::SimdFloatAdd                  0      0.00%     80.95% # Class of executed instruction
system.cpu0.op_class::SimdFloatAlu                  0      0.00%     80.95% # Class of executed instruction
system.cpu0.op_class::SimdFloatCmp                  0      0.00%     80.95% # Class of executed instruction
system.cpu0.op_class::SimdFloatCvt                  0      0.00%     80.95% # Class of executed instruction
system.cpu0.op_class::SimdFloatDiv                  0      0.00%     80.95% # Class of executed instruction
system.cpu0.op_class::SimdFloatMisc                 0      0.00%     80.95% # Class of executed instruction
system.cpu0.op_class::SimdFloatMult                 0      0.00%     80.95% # Class of executed instruction
system.cpu0.op_class::SimdFloatMultAcc              0      0.00%     80.95% # Class of executed instruction
system.cpu0.op_class::SimdFloatSqrt                 0      0.00%     80.95% # Class of executed instruction
system.cpu0.op_class::SimdAes                       0      0.00%     80.95% # Class of executed instruction
system.cpu0.op_class::SimdAesMix                    0      0.00%     80.95% # Class of executed instruction
system.cpu0.op_class::SimdSha1Hash                  0      0.00%     80.95% # Class of executed instruction
system.cpu0.op_class::SimdSha1Hash2                 0      0.00%     80.95% # Class of executed instruction
system.cpu0.op_class::SimdSha256Hash                0      0.00%     80.95% # Class of executed instruction
system.cpu0.op_class::SimdSha256Hash2               0      0.00%     80.95% # Class of executed instruction
system.cpu0.op_class::SimdShaSigma2                 0      0.00%     80.95% # Class of executed instruction
system.cpu0.op_class::SimdShaSigma3                 0      0.00%     80.95% # Class of executed instruction
system.cpu0.op_class::MemRead                       0      0.00%     80.95% # Class of executed instruction
system.cpu0.op_class::MemWrite                      0      0.00%     80.95% # Class of executed instruction
system.cpu0.op_class::FloatMemRead                  4     19.05%    100.00% # Class of executed instruction
system.cpu0.op_class::FloatMemWrite                 0      0.00%    100.00% # Class of executed instruction
system.cpu0.op_class::IprAccess                     0      0.00%    100.00% # Class of executed instruction
system.cpu0.op_class::InstPrefetch                  0      0.00%    100.00% # Class of executed instruction
system.cpu0.op_class::total                        21                       # Class of executed instruction
system.cpu0.dcache.tags.pwrStateResidencyTicks::UNDEFINED 2388039880000                       # Cumulative time (in ticks) in various power states
system.cpu0.dcache.tags.tagsinuse          509.654344                       # Cycle average of tags in use
system.cpu0.dcache.tags.total_refs           13145834                       # Total number of references to valid blocks.
system.cpu0.dcache.tags.sampled_refs            33243                       # Sample count of references to valid blocks.
system.cpu0.dcache.tags.avg_refs           395.446681                       # Average number of references to valid blocks.
system.cpu0.dcache.tags.warmup_cycle     2364990807000                       # Cycle when the warmup percentage was hit.
system.cpu0.dcache.tags.occ_blocks::.cpu0.data     0.017584                       # Average occupied blocks per requestor
system.cpu0.dcache.tags.occ_blocks::.switch_cpus0.data   509.636760                       # Average occupied blocks per requestor
system.cpu0.dcache.tags.occ_percent::.cpu0.data     0.000034                       # Average percentage of cache occupancy
system.cpu0.dcache.tags.occ_percent::.switch_cpus0.data     0.995384                       # Average percentage of cache occupancy
system.cpu0.dcache.tags.occ_percent::total     0.995419                       # Average percentage of cache occupancy
system.cpu0.dcache.tags.occ_task_id_blocks::1024          512                       # Occupied blocks per task id
system.cpu0.dcache.tags.age_task_id_blocks_1024::0            1                       # Occupied blocks per task id
system.cpu0.dcache.tags.age_task_id_blocks_1024::1            2                       # Occupied blocks per task id
system.cpu0.dcache.tags.age_task_id_blocks_1024::2          272                       # Occupied blocks per task id
system.cpu0.dcache.tags.age_task_id_blocks_1024::3          237                       # Occupied blocks per task id
system.cpu0.dcache.tags.occ_task_id_percent::1024            1                       # Percentage of cache occupancy per task id
system.cpu0.dcache.tags.tag_accesses        105330051                       # Number of tag accesses
system.cpu0.dcache.tags.data_accesses       105330051                       # Number of data accesses
system.cpu0.dcache.pwrStateResidencyTicks::UNDEFINED 2388039880000                       # Cumulative time (in ticks) in various power states
system.cpu0.dcache.ReadReq_hits::.cpu0.data            2                       # number of ReadReq hits
system.cpu0.dcache.ReadReq_hits::.switch_cpus0.data     11942652                       # number of ReadReq hits
system.cpu0.dcache.ReadReq_hits::total       11942654                       # number of ReadReq hits
system.cpu0.dcache.WriteReq_hits::.switch_cpus0.data      1169468                       # number of WriteReq hits
system.cpu0.dcache.WriteReq_hits::total       1169468                       # number of WriteReq hits
system.cpu0.dcache.SoftPFReq_hits::.switch_cpus0.data          119                       # number of SoftPFReq hits
system.cpu0.dcache.SoftPFReq_hits::total          119                       # number of SoftPFReq hits
system.cpu0.dcache.demand_hits::.cpu0.data            2                       # number of demand (read+write) hits
system.cpu0.dcache.demand_hits::.switch_cpus0.data     13112120                       # number of demand (read+write) hits
system.cpu0.dcache.demand_hits::total        13112122                       # number of demand (read+write) hits
system.cpu0.dcache.overall_hits::.cpu0.data            2                       # number of overall hits
system.cpu0.dcache.overall_hits::.switch_cpus0.data     13112239                       # number of overall hits
system.cpu0.dcache.overall_hits::total       13112241                       # number of overall hits
system.cpu0.dcache.ReadReq_misses::.cpu0.data            2                       # number of ReadReq misses
system.cpu0.dcache.ReadReq_misses::.switch_cpus0.data        33443                       # number of ReadReq misses
system.cpu0.dcache.ReadReq_misses::total        33445                       # number of ReadReq misses
system.cpu0.dcache.WriteReq_misses::.switch_cpus0.data        15070                       # number of WriteReq misses
system.cpu0.dcache.WriteReq_misses::total        15070                       # number of WriteReq misses
system.cpu0.dcache.SoftPFReq_misses::.switch_cpus0.data         1345                       # number of SoftPFReq misses
system.cpu0.dcache.SoftPFReq_misses::total         1345                       # number of SoftPFReq misses
system.cpu0.dcache.demand_misses::.cpu0.data            2                       # number of demand (read+write) misses
system.cpu0.dcache.demand_misses::.switch_cpus0.data        48513                       # number of demand (read+write) misses
system.cpu0.dcache.demand_misses::total         48515                       # number of demand (read+write) misses
system.cpu0.dcache.overall_misses::.cpu0.data            2                       # number of overall misses
system.cpu0.dcache.overall_misses::.switch_cpus0.data        49858                       # number of overall misses
system.cpu0.dcache.overall_misses::total        49860                       # number of overall misses
system.cpu0.dcache.ReadReq_miss_latency::.switch_cpus0.data   1144967000                       # number of ReadReq miss cycles
system.cpu0.dcache.ReadReq_miss_latency::total   1144967000                       # number of ReadReq miss cycles
system.cpu0.dcache.WriteReq_miss_latency::.switch_cpus0.data    720290990                       # number of WriteReq miss cycles
system.cpu0.dcache.WriteReq_miss_latency::total    720290990                       # number of WriteReq miss cycles
system.cpu0.dcache.demand_miss_latency::.switch_cpus0.data   1865257990                       # number of demand (read+write) miss cycles
system.cpu0.dcache.demand_miss_latency::total   1865257990                       # number of demand (read+write) miss cycles
system.cpu0.dcache.overall_miss_latency::.switch_cpus0.data   1865257990                       # number of overall miss cycles
system.cpu0.dcache.overall_miss_latency::total   1865257990                       # number of overall miss cycles
system.cpu0.dcache.ReadReq_accesses::.cpu0.data            4                       # number of ReadReq accesses(hits+misses)
system.cpu0.dcache.ReadReq_accesses::.switch_cpus0.data     11976095                       # number of ReadReq accesses(hits+misses)
system.cpu0.dcache.ReadReq_accesses::total     11976099                       # number of ReadReq accesses(hits+misses)
system.cpu0.dcache.WriteReq_accesses::.switch_cpus0.data      1184538                       # number of WriteReq accesses(hits+misses)
system.cpu0.dcache.WriteReq_accesses::total      1184538                       # number of WriteReq accesses(hits+misses)
system.cpu0.dcache.SoftPFReq_accesses::.switch_cpus0.data         1464                       # number of SoftPFReq accesses(hits+misses)
system.cpu0.dcache.SoftPFReq_accesses::total         1464                       # number of SoftPFReq accesses(hits+misses)
system.cpu0.dcache.demand_accesses::.cpu0.data            4                       # number of demand (read+write) accesses
system.cpu0.dcache.demand_accesses::.switch_cpus0.data     13160633                       # number of demand (read+write) accesses
system.cpu0.dcache.demand_accesses::total     13160637                       # number of demand (read+write) accesses
system.cpu0.dcache.overall_accesses::.cpu0.data            4                       # number of overall (read+write) accesses
system.cpu0.dcache.overall_accesses::.switch_cpus0.data     13162097                       # number of overall (read+write) accesses
system.cpu0.dcache.overall_accesses::total     13162101                       # number of overall (read+write) accesses
system.cpu0.dcache.ReadReq_miss_rate::.cpu0.data     0.500000                       # miss rate for ReadReq accesses
system.cpu0.dcache.ReadReq_miss_rate::.switch_cpus0.data     0.002792                       # miss rate for ReadReq accesses
system.cpu0.dcache.ReadReq_miss_rate::total     0.002793                       # miss rate for ReadReq accesses
system.cpu0.dcache.WriteReq_miss_rate::.switch_cpus0.data     0.012722                       # miss rate for WriteReq accesses
system.cpu0.dcache.WriteReq_miss_rate::total     0.012722                       # miss rate for WriteReq accesses
system.cpu0.dcache.SoftPFReq_miss_rate::.switch_cpus0.data     0.918716                       # miss rate for SoftPFReq accesses
system.cpu0.dcache.SoftPFReq_miss_rate::total     0.918716                       # miss rate for SoftPFReq accesses
system.cpu0.dcache.demand_miss_rate::.cpu0.data     0.500000                       # miss rate for demand accesses
system.cpu0.dcache.demand_miss_rate::.switch_cpus0.data     0.003686                       # miss rate for demand accesses
system.cpu0.dcache.demand_miss_rate::total     0.003686                       # miss rate for demand accesses
system.cpu0.dcache.overall_miss_rate::.cpu0.data     0.500000                       # miss rate for overall accesses
system.cpu0.dcache.overall_miss_rate::.switch_cpus0.data     0.003788                       # miss rate for overall accesses
system.cpu0.dcache.overall_miss_rate::total     0.003788                       # miss rate for overall accesses
system.cpu0.dcache.ReadReq_avg_miss_latency::.switch_cpus0.data 34236.372335                       # average ReadReq miss latency
system.cpu0.dcache.ReadReq_avg_miss_latency::total 34234.325011                       # average ReadReq miss latency
system.cpu0.dcache.WriteReq_avg_miss_latency::.switch_cpus0.data 47796.349701                       # average WriteReq miss latency
system.cpu0.dcache.WriteReq_avg_miss_latency::total 47796.349701                       # average WriteReq miss latency
system.cpu0.dcache.demand_avg_miss_latency::.switch_cpus0.data 38448.621813                       # average overall miss latency
system.cpu0.dcache.demand_avg_miss_latency::total 38447.036793                       # average overall miss latency
system.cpu0.dcache.overall_avg_miss_latency::.switch_cpus0.data 37411.408199                       # average overall miss latency
system.cpu0.dcache.overall_avg_miss_latency::total 37409.907541                       # average overall miss latency
system.cpu0.dcache.blocked_cycles::no_mshrs        24934                       # number of cycles access was blocked
system.cpu0.dcache.blocked_cycles::no_targets          202                       # number of cycles access was blocked
system.cpu0.dcache.blocked::no_mshrs              633                       # number of cycles access was blocked
system.cpu0.dcache.blocked::no_targets              2                       # number of cycles access was blocked
system.cpu0.dcache.avg_blocked_cycles::no_mshrs    39.390205                       # average number of cycles each access was blocked
system.cpu0.dcache.avg_blocked_cycles::no_targets          101                       # average number of cycles each access was blocked
system.cpu0.dcache.writebacks::.writebacks        19680                       # number of writebacks
system.cpu0.dcache.writebacks::total            19680                       # number of writebacks
system.cpu0.dcache.ReadReq_mshr_hits::.switch_cpus0.data        16249                       # number of ReadReq MSHR hits
system.cpu0.dcache.ReadReq_mshr_hits::total        16249                       # number of ReadReq MSHR hits
system.cpu0.dcache.WriteReq_mshr_hits::.switch_cpus0.data           40                       # number of WriteReq MSHR hits
system.cpu0.dcache.WriteReq_mshr_hits::total           40                       # number of WriteReq MSHR hits
system.cpu0.dcache.demand_mshr_hits::.switch_cpus0.data        16289                       # number of demand (read+write) MSHR hits
system.cpu0.dcache.demand_mshr_hits::total        16289                       # number of demand (read+write) MSHR hits
system.cpu0.dcache.overall_mshr_hits::.switch_cpus0.data        16289                       # number of overall MSHR hits
system.cpu0.dcache.overall_mshr_hits::total        16289                       # number of overall MSHR hits
system.cpu0.dcache.ReadReq_mshr_misses::.switch_cpus0.data        17194                       # number of ReadReq MSHR misses
system.cpu0.dcache.ReadReq_mshr_misses::total        17194                       # number of ReadReq MSHR misses
system.cpu0.dcache.WriteReq_mshr_misses::.switch_cpus0.data        15030                       # number of WriteReq MSHR misses
system.cpu0.dcache.WriteReq_mshr_misses::total        15030                       # number of WriteReq MSHR misses
system.cpu0.dcache.SoftPFReq_mshr_misses::.switch_cpus0.data         1337                       # number of SoftPFReq MSHR misses
system.cpu0.dcache.SoftPFReq_mshr_misses::total         1337                       # number of SoftPFReq MSHR misses
system.cpu0.dcache.demand_mshr_misses::.switch_cpus0.data        32224                       # number of demand (read+write) MSHR misses
system.cpu0.dcache.demand_mshr_misses::total        32224                       # number of demand (read+write) MSHR misses
system.cpu0.dcache.overall_mshr_misses::.switch_cpus0.data        33561                       # number of overall MSHR misses
system.cpu0.dcache.overall_mshr_misses::total        33561                       # number of overall MSHR misses
system.cpu0.dcache.WriteReq_mshr_uncacheable::.switch_cpus0.data           19                       # number of WriteReq MSHR uncacheable
system.cpu0.dcache.WriteReq_mshr_uncacheable::total           19                       # number of WriteReq MSHR uncacheable
system.cpu0.dcache.overall_mshr_uncacheable_misses::.switch_cpus0.data           19                       # number of overall MSHR uncacheable misses
system.cpu0.dcache.overall_mshr_uncacheable_misses::total           19                       # number of overall MSHR uncacheable misses
system.cpu0.dcache.ReadReq_mshr_miss_latency::.switch_cpus0.data    545820000                       # number of ReadReq MSHR miss cycles
system.cpu0.dcache.ReadReq_mshr_miss_latency::total    545820000                       # number of ReadReq MSHR miss cycles
system.cpu0.dcache.WriteReq_mshr_miss_latency::.switch_cpus0.data    703274490                       # number of WriteReq MSHR miss cycles
system.cpu0.dcache.WriteReq_mshr_miss_latency::total    703274490                       # number of WriteReq MSHR miss cycles
system.cpu0.dcache.SoftPFReq_mshr_miss_latency::.switch_cpus0.data     67066000                       # number of SoftPFReq MSHR miss cycles
system.cpu0.dcache.SoftPFReq_mshr_miss_latency::total     67066000                       # number of SoftPFReq MSHR miss cycles
system.cpu0.dcache.demand_mshr_miss_latency::.switch_cpus0.data   1249094490                       # number of demand (read+write) MSHR miss cycles
system.cpu0.dcache.demand_mshr_miss_latency::total   1249094490                       # number of demand (read+write) MSHR miss cycles
system.cpu0.dcache.overall_mshr_miss_latency::.switch_cpus0.data   1316160490                       # number of overall MSHR miss cycles
system.cpu0.dcache.overall_mshr_miss_latency::total   1316160490                       # number of overall MSHR miss cycles
system.cpu0.dcache.ReadReq_mshr_miss_rate::.switch_cpus0.data     0.001436                       # mshr miss rate for ReadReq accesses
system.cpu0.dcache.ReadReq_mshr_miss_rate::total     0.001436                       # mshr miss rate for ReadReq accesses
system.cpu0.dcache.WriteReq_mshr_miss_rate::.switch_cpus0.data     0.012688                       # mshr miss rate for WriteReq accesses
system.cpu0.dcache.WriteReq_mshr_miss_rate::total     0.012688                       # mshr miss rate for WriteReq accesses
system.cpu0.dcache.SoftPFReq_mshr_miss_rate::.switch_cpus0.data     0.913251                       # mshr miss rate for SoftPFReq accesses
system.cpu0.dcache.SoftPFReq_mshr_miss_rate::total     0.913251                       # mshr miss rate for SoftPFReq accesses
system.cpu0.dcache.demand_mshr_miss_rate::.switch_cpus0.data     0.002449                       # mshr miss rate for demand accesses
system.cpu0.dcache.demand_mshr_miss_rate::total     0.002449                       # mshr miss rate for demand accesses
system.cpu0.dcache.overall_mshr_miss_rate::.switch_cpus0.data     0.002550                       # mshr miss rate for overall accesses
system.cpu0.dcache.overall_mshr_miss_rate::total     0.002550                       # mshr miss rate for overall accesses
system.cpu0.dcache.ReadReq_avg_mshr_miss_latency::.switch_cpus0.data 31744.794696                       # average ReadReq mshr miss latency
system.cpu0.dcache.ReadReq_avg_mshr_miss_latency::total 31744.794696                       # average ReadReq mshr miss latency
[...]
system.switch_cpus1.commit.committed_per_cycle::7       262541      0.68%     95.24% # Number of insts commited each cycle
system.switch_cpus1.commit.committed_per_cycle::8      1844936      4.76%    100.00% # Number of insts commited each cycle
system.switch_cpus1.commit.committed_per_cycle::overflows            0      0.00%    100.00% # Number of insts commited each cycle
system.switch_cpus1.commit.committed_per_cycle::min_value            0                       # Number of insts commited each cycle
system.switch_cpus1.commit.committed_per_cycle::max_value            8                       # Number of insts commited each cycle
system.switch_cpus1.commit.committed_per_cycle::total     38771430                       # Number of insts commited each cycle
system.switch_cpus1.commit.committedInsts     19413925                       # Number of instructions committed
system.switch_cpus1.commit.committedOps      37403854                       # Number of ops (including micro ops) committed
system.switch_cpus1.commit.swp_count                0                       # Number of s/w prefetches committed
system.switch_cpus1.commit.refs               8476211                       # Number of memory references committed
system.switch_cpus1.commit.loads              5088784                       # Number of loads committed
system.switch_cpus1.commit.membars             168263                       # Number of memory barriers committed
system.switch_cpus1.commit.branches           3766970                       # Number of branches committed
system.switch_cpus1.commit.vec_insts                0                       # Number of committed Vector instructions.
system.switch_cpus1.commit.fp_insts            449695                       # Number of committed floating point instructions.
system.switch_cpus1.commit.int_insts         36323693                       # Number of committed integer instructions.
system.switch_cpus1.commit.function_calls       356941                       # Number of function calls committed.
system.switch_cpus1.commit.op_class_0::No_OpClass       204902      0.55%      0.55% # Class of committed instruction
system.switch_cpus1.commit.op_class_0::IntAlu     28399615     75.93%     76.47% # Class of committed instruction
system.switch_cpus1.commit.op_class_0::IntMult         9338      0.02%     76.50% # Class of committed instruction
system.switch_cpus1.commit.op_class_0::IntDiv        38127      0.10%     76.60% # Class of committed instruction
system.switch_cpus1.commit.op_class_0::FloatAdd         3951      0.01%     76.61% # Class of committed instruction
system.switch_cpus1.commit.op_class_0::FloatCmp            0      0.00%     76.61% # Class of committed instruction
system.switch_cpus1.commit.op_class_0::FloatCvt         1056      0.00%     76.62% # Class of committed instruction
system.switch_cpus1.commit.op_class_0::FloatMult            0      0.00%     76.62% # Class of committed instruction
system.switch_cpus1.commit.op_class_0::FloatMultAcc            0      0.00%     76.62% # Class of committed instruction
system.switch_cpus1.commit.op_class_0::FloatDiv            0      0.00%     76.62% # Class of committed instruction
system.switch_cpus1.commit.op_class_0::FloatMisc            0      0.00%     76.62% # Class of committed instruction
system.switch_cpus1.commit.op_class_0::FloatSqrt            0      0.00%     76.62% # Class of committed instruction
system.switch_cpus1.commit.op_class_0::SimdAdd        31680      0.08%     76.70% # Class of committed instruction
system.switch_cpus1.commit.op_class_0::SimdAddAcc            0      0.00%     76.70% # Class of committed instruction
system.switch_cpus1.commit.op_class_0::SimdAlu        72061      0.19%     76.89% # Class of committed instruction
system.switch_cpus1.commit.op_class_0::SimdCmp         1276      0.00%     76.90% # Class of committed instruction
system.switch_cpus1.commit.op_class_0::SimdCvt        85526      0.23%     77.12% # Class of committed instruction
system.switch_cpus1.commit.op_class_0::SimdMisc        67128      0.18%     77.30% # Class of committed instruction
system.switch_cpus1.commit.op_class_0::SimdMult            0      0.00%     77.30% # Class of committed instruction
system.switch_cpus1.commit.op_class_0::SimdMultAcc            0      0.00%     77.30% # Class of committed instruction
system.switch_cpus1.commit.op_class_0::SimdShift        12983      0.03%     77.34% # Class of committed instruction
system.switch_cpus1.commit.op_class_0::SimdShiftAcc            0      0.00%     77.34% # Class of committed instruction
system.switch_cpus1.commit.op_class_0::SimdSqrt            0      0.00%     77.34% # Class of committed instruction
system.switch_cpus1.commit.op_class_0::SimdFloatAdd            0      0.00%     77.34% # Class of committed instruction
system.switch_cpus1.commit.op_class_0::SimdFloatAlu            0      0.00%     77.34% # Class of committed instruction
system.switch_cpus1.commit.op_class_0::SimdFloatCmp            0      0.00%     77.34% # Class of committed instruction
system.switch_cpus1.commit.op_class_0::SimdFloatCvt            0      0.00%     77.34% # Class of committed instruction
system.switch_cpus1.commit.op_class_0::SimdFloatDiv            0      0.00%     77.34% # Class of committed instruction
system.switch_cpus1.commit.op_class_0::SimdFloatMisc            0      0.00%     77.34% # Class of committed instruction
system.switch_cpus1.commit.op_class_0::SimdFloatMult            0      0.00%     77.34% # Class of committed instruction
system.switch_cpus1.commit.op_class_0::SimdFloatMultAcc            0      0.00%     77.34% # Class of committed instruction
system.switch_cpus1.commit.op_class_0::SimdFloatSqrt            0      0.00%     77.34% # Class of committed instruction
system.switch_cpus1.commit.op_class_0::SimdAes            0      0.00%     77.34% # Class of committed instruction
system.switch_cpus1.commit.op_class_0::SimdAesMix            0      0.00%     77.34% # Class of committed instruction
system.switch_cpus1.commit.op_class_0::SimdSha1Hash            0      0.00%     77.34% # Class of committed instruction
system.switch_cpus1.commit.op_class_0::SimdSha1Hash2            0      0.00%     77.34% # Class of committed instruction
system.switch_cpus1.commit.op_class_0::SimdSha256Hash            0      0.00%     77.34% # Class of committed instruction
system.switch_cpus1.commit.op_class_0::SimdSha256Hash2            0      0.00%     77.34% # Class of committed instruction
system.switch_cpus1.commit.op_class_0::SimdShaSigma2            0      0.00%     77.34% # Class of committed instruction
system.switch_cpus1.commit.op_class_0::SimdShaSigma3            0      0.00%     77.34% # Class of committed instruction
system.switch_cpus1.commit.op_class_0::MemRead      4996664     13.36%     90.70% # Class of committed instruction
system.switch_cpus1.commit.op_class_0::MemWrite      3312055      8.85%     99.55% # Class of committed instruction
system.switch_cpus1.commit.op_class_0::FloatMemRead        92120      0.25%     99.80% # Class of committed instruction
system.switch_cpus1.commit.op_class_0::FloatMemWrite        75372      0.20%    100.00% # Class of committed instruction
system.switch_cpus1.commit.op_class_0::IprAccess            0      0.00%    100.00% # Class of committed instruction
system.switch_cpus1.commit.op_class_0::InstPrefetch            0      0.00%    100.00% # Class of committed instruction
system.switch_cpus1.commit.op_class_0::total     37403854                       # Class of committed instruction
system.switch_cpus1.commit.bw_lim_events      1844936                       # number cycles where commit BW limit reached
system.switch_cpus1.rob.rob_reads           101772334                       # The number of ROB reads
system.switch_cpus1.rob.rob_writes          134188215                       # The number of ROB writes
system.switch_cpus1.timesIdled                 118566                       # Number of times that the entire CPU went into an idle state and unscheduled itself
system.switch_cpus1.idleCycles                2929032                       # Total number of cycles that the CPU has spent unscheduled due to idling
system.switch_cpus1.quiesceCycles               15814                       # Total number of cycles that CPU has spent quiesced or waiting for an interrupt
system.switch_cpus1.committedInsts           19413925                       # Number of Instructions Simulated
system.switch_cpus1.committedOps             37403854                       # Number of Ops (including micro ops) Simulated
system.switch_cpus1.cpi                      2.373673                       # CPI: Cycles Per Instruction
system.switch_cpus1.cpi_total                2.373673                       # CPI: Total CPI of All Threads
system.switch_cpus1.ipc                      0.421288                       # IPC: Instructions Per Cycle
system.switch_cpus1.ipc_total                0.421288                       # IPC: Total IPC of All Threads
system.switch_cpus1.int_regfile_reads        75192425                       # number of integer regfile reads
system.switch_cpus1.int_regfile_writes       41145636                       # number of integer regfile writes
system.switch_cpus1.fp_regfile_reads           972675                       # number of floating regfile reads
system.switch_cpus1.fp_regfile_writes          497142                       # number of floating regfile writes
system.switch_cpus1.cc_regfile_reads         24216495                       # number of cc regfile reads
system.switch_cpus1.cc_regfile_writes        13444095                       # number of cc regfile writes
system.switch_cpus1.misc_regfile_reads       22570522                       # number of misc regfile reads
system.switch_cpus1.misc_regfile_writes         83042                       # number of misc regfile writes
system.tol2bus.snoop_filter.tot_requests      2084345                       # Total number of requests made to the snoop filter.
system.tol2bus.snoop_filter.hit_single_requests      1012001                       # Number of requests hitting in the snoop filter with a single holder of the requested data.
system.tol2bus.snoop_filter.hit_multi_requests       227200                       # Number of requests hitting in the snoop filter with multiple (>1) holders of the requested data.
system.tol2bus.snoop_filter.tot_snoops            677                       # Total number of snoops made to the snoop filter.
system.tol2bus.snoop_filter.hit_single_snoops          674                       # Number of snoops hitting in the snoop filter with a single holder of the requested data.
system.tol2bus.snoop_filter.hit_multi_snoops            3                       # Number of snoops hitting in the snoop filter with multiple (>1) holders of the requested data.
system.tol2bus.pwrStateResidencyTicks::UNDEFINED 2388039880000                       # Cumulative time (in ticks) in various power states
system.tol2bus.trans_dist::ReadReq                830                       # Transaction distribution
system.tol2bus.trans_dist::ReadResp            943012                       # Transaction distribution
system.tol2bus.trans_dist::WriteReq               525                       # Transaction distribution
system.tol2bus.trans_dist::WriteResp              525                       # Transaction distribution
system.tol2bus.trans_dist::WritebackDirty       360838                       # Transaction distribution
system.tol2bus.trans_dist::WritebackClean       323067                       # Transaction distribution
system.tol2bus.trans_dist::CleanEvict          423846                       # Transaction distribution
system.tol2bus.trans_dist::UpgradeReq            1814                       # Transaction distribution
system.tol2bus.trans_dist::UpgradeResp           1814                       # Transaction distribution
system.tol2bus.trans_dist::ReadExReq           100930                       # Transaction distribution
system.tol2bus.trans_dist::ReadExResp          100930                       # Transaction distribution
system.tol2bus.trans_dist::ReadCleanReq        324091                       # Transaction distribution
system.tol2bus.trans_dist::ReadSharedReq       618122                       # Transaction distribution
system.tol2bus.trans_dist::InvalidateReq         2964                       # Transaction distribution
system.tol2bus.pkt_count_system.cpu0.icache.mem_side::system.l2.cpu_side        63157                       # Packet count per connected master and slave (bytes)
system.tol2bus.pkt_count_system.cpu0.dcache.mem_side::system.l2.cpu_side        99116                       # Packet count per connected master and slave (bytes)
system.tol2bus.pkt_count_system.cpu0.itb_walker_cache.mem_side::system.l2.cpu_side       101186                       # Packet count per connected master and slave (bytes)
system.tol2bus.pkt_count_system.cpu0.dtb_walker_cache.mem_side::system.l2.cpu_side       131366                       # Packet count per connected master and slave (bytes)
system.tol2bus.pkt_count_system.cpu1.icache.mem_side::system.l2.cpu_side       908088                       # Packet count per connected master and slave (bytes)
system.tol2bus.pkt_count_system.cpu1.dcache.mem_side::system.l2.cpu_side       832410                       # Packet count per connected master and slave (bytes)
system.tol2bus.pkt_count_system.cpu1.itb_walker_cache.mem_side::system.l2.cpu_side        81295                       # Packet count per connected master and slave (bytes)
system.tol2bus.pkt_count_system.cpu1.dtb_walker_cache.mem_side::system.l2.cpu_side       863453                       # Packet count per connected master and slave (bytes)
system.tol2bus.pkt_count::total               3080071                       # Packet count per connected master and slave (bytes)
system.tol2bus.pkt_size_system.cpu0.icache.mem_side::system.l2.cpu_side      2683776                       # Cumulative packet size per connected master and slave (bytes)
system.tol2bus.pkt_size_system.cpu0.dcache.mem_side::system.l2.cpu_side      3363142                       # Cumulative packet size per connected master and slave (bytes)
system.tol2bus.pkt_size_system.cpu0.itb_walker_cache.mem_side::system.l2.cpu_side      2158976                       # Cumulative packet size per connected master and slave (bytes)
system.tol2bus.pkt_size_system.cpu0.dtb_walker_cache.mem_side::system.l2.cpu_side      2805632                       # Cumulative packet size per connected master and slave (bytes)
system.tol2bus.pkt_size_system.cpu1.icache.mem_side::system.l2.cpu_side     38734080                       # Cumulative packet size per connected master and slave (bytes)
system.tol2bus.pkt_size_system.cpu1.dcache.mem_side::system.l2.cpu_side     29323849                       # Cumulative packet size per connected master and slave (bytes)
system.tol2bus.pkt_size_system.cpu1.itb_walker_cache.mem_side::system.l2.cpu_side      2123456                       # Cumulative packet size per connected master and slave (bytes)
system.tol2bus.pkt_size_system.cpu1.dtb_walker_cache.mem_side::system.l2.cpu_side     24021952                       # Cumulative packet size per connected master and slave (bytes)
system.tol2bus.pkt_size::total              105214863                       # Cumulative packet size per connected master and slave (bytes)
system.tol2bus.snoops                          123272                       # Total snoops (count)
system.tol2bus.snoopTraffic                   5318144                       # Total snoop traffic (bytes)
system.tol2bus.snoop_fanout::samples          1117573                       # Request fanout histogram
system.tol2bus.snoop_fanout::mean            0.205107                       # Request fanout histogram
system.tol2bus.snoop_fanout::stdev           0.464652                       # Request fanout histogram
system.tol2bus.snoop_fanout::underflows             0      0.00%      0.00% # Request fanout histogram
system.tol2bus.snoop_fanout::0                 917613     82.11%     82.11% # Request fanout histogram
system.tol2bus.snoop_fanout::1                 170975     15.30%     97.41% # Request fanout histogram
system.tol2bus.snoop_fanout::2                  28708      2.57%     99.98% # Request fanout histogram
system.tol2bus.snoop_fanout::3                    277      0.02%    100.00% # Request fanout histogram
system.tol2bus.snoop_fanout::4                      0      0.00%    100.00% # Request fanout histogram
system.tol2bus.snoop_fanout::5                      0      0.00%    100.00% # Request fanout histogram
system.tol2bus.snoop_fanout::6                      0      0.00%    100.00% # Request fanout histogram
system.tol2bus.snoop_fanout::7                      0      0.00%    100.00% # Request fanout histogram
system.tol2bus.snoop_fanout::8                      0      0.00%    100.00% # Request fanout histogram
system.tol2bus.snoop_fanout::overflows              0      0.00%    100.00% # Request fanout histogram
system.tol2bus.snoop_fanout::min_value              0                       # Request fanout histogram
system.tol2bus.snoop_fanout::max_value              3                       # Request fanout histogram
system.tol2bus.snoop_fanout::total            1117573                       # Request fanout histogram
system.tol2bus.reqLayer0.occupancy         1695122887                       # Layer occupancy (ticks)
system.tol2bus.reqLayer0.utilization              7.4                       # Layer utilization (%)
system.tol2bus.snoopLayer0.occupancy            61981                       # Layer occupancy (ticks)
system.tol2bus.snoopLayer0.utilization            0.0                       # Layer utilization (%)
system.tol2bus.respLayer0.occupancy          31929303                       # Layer occupancy (ticks)
system.tol2bus.respLayer0.utilization             0.1                       # Layer utilization (%)
system.tol2bus.respLayer1.occupancy          50229599                       # Layer occupancy (ticks)
system.tol2bus.respLayer1.utilization             0.2                       # Layer utilization (%)
system.tol2bus.respLayer2.occupancy          50622457                       # Layer occupancy (ticks)
system.tol2bus.respLayer2.utilization             0.2                       # Layer utilization (%)
system.tol2bus.respLayer3.occupancy          65826358                       # Layer occupancy (ticks)
system.tol2bus.respLayer3.utilization             0.3                       # Layer utilization (%)
system.tol2bus.respLayer4.occupancy         454959664                       # Layer occupancy (ticks)
system.tol2bus.respLayer4.utilization             2.0                       # Layer utilization (%)
system.tol2bus.respLayer5.occupancy         416933130                       # Layer occupancy (ticks)
system.tol2bus.respLayer5.utilization             1.8                       # Layer utilization (%)
system.tol2bus.respLayer6.occupancy          44261928                       # Layer occupancy (ticks)
system.tol2bus.respLayer6.utilization             0.2                       # Layer utilization (%)
system.tol2bus.respLayer7.occupancy         453624467                       # Layer occupancy (ticks)
system.tol2bus.respLayer7.utilization             2.0                       # Layer utilization (%)
system.switch_cpus0.kern.inst.arm                   0                       # number of arm instructions executed
system.switch_cpus0.kern.inst.quiesce               0                       # number of quiesce instructions executed
system.switch_cpus1.kern.inst.arm                   0                       # number of arm instructions executed
system.switch_cpus1.kern.inst.quiesce               0                       # number of quiesce instructions executed

---------- End Simulation Statistics   ----------
