
---------- Begin Simulation Statistics ----------
sim_seconds                                  0.001623                       # Number of seconds simulated
sim_ticks                                  1622935500                       # Number of ticks simulated
final_tick                               2366613740500                       # Number of ticks from beginning of simulation (restored from checkpoints and never reset)
sim_freq                                 1000000000000                       # Frequency of simulated ticks
host_inst_rate                                 105636                       # Simulator instruction rate (inst/s)
host_op_rate                                   234738                       # Simulator op (including micro ops) rate (op/s)
host_tick_rate                               58940116                       # Simulator tick rate (ticks/s)
host_mem_usage                                2945208                       # Number of bytes of host memory used
host_seconds                                    27.54                       # Real time elapsed on the host
sim_insts                                     2908724                       # Number of instructions simulated
sim_ops                                       6463577                       # Number of ops (including micro ops) simulated
system.voltage_domain.voltage                       1                       # Voltage in Volts
system.clk_domain.clock                          1000                       # Clock period in ticks
system.mem_ctrls.pwrStateResidencyTicks::UNDEFINED 2366613740500                       # Cumulative time (in ticks) in various power states
system.mem_ctrls.bytes_read::.cpu0.inst           128                       # Number of bytes read from this memory
system.mem_ctrls.bytes_read::.cpu0.data           128                       # Number of bytes read from this memory
system.mem_ctrls.bytes_read::.cpu1.inst           256                       # Number of bytes read from this memory
system.mem_ctrls.bytes_read::.cpu1.data           128                       # Number of bytes read from this memory
system.mem_ctrls.bytes_read::.switch_cpus0.dtb.walker         5760                       # Number of bytes read from this memory
system.mem_ctrls.bytes_read::.switch_cpus0.itb.walker         2240                       # Number of bytes read from this memory
system.mem_ctrls.bytes_read::.switch_cpus0.inst       174144                       # Number of bytes read from this memory
system.mem_ctrls.bytes_read::.switch_cpus0.data       242240                       # Number of bytes read from this memory
system.mem_ctrls.bytes_read::.switch_cpus1.dtb.walker        14208                       # Number of bytes read from this memory
system.mem_ctrls.bytes_read::.switch_cpus1.itb.walker         4480                       # Number of bytes read from this memory
system.mem_ctrls.bytes_read::.switch_cpus1.inst       316160                       # Number of bytes read from this memory
system.mem_ctrls.bytes_read::.switch_cpus1.data       549568                       # Number of bytes read from this memory
system.mem_ctrls.bytes_read::total            1309440                       # Number of bytes read from this memory
system.mem_ctrls.bytes_inst_read::.cpu0.inst          128                       # Number of instructions bytes read from this memory
system.mem_ctrls.bytes_inst_read::.cpu1.inst          256                       # Number of instructions bytes read from this memory
system.mem_ctrls.bytes_inst_read::.switch_cpus0.inst       174144                       # Number of instructions bytes read from this memory
system.mem_ctrls.bytes_inst_read::.switch_cpus1.inst       316160                       # Number of instructions bytes read from this memory
system.mem_ctrls.bytes_inst_read::total        490688                       # Number of instructions bytes read from this memory
system.mem_ctrls.bytes_written::.writebacks          448                       # Number of bytes written to this memory
system.mem_ctrls.bytes_written::total             448                       # Number of bytes written to this memory
system.mem_ctrls.num_reads::.cpu0.inst              2                       # Number of read requests responded to by this memory
system.mem_ctrls.num_reads::.cpu0.data              2                       # Number of read requests responded to by this memory
system.mem_ctrls.num_reads::.cpu1.inst              4                       # Number of read requests responded to by this memory
system.mem_ctrls.num_reads::.cpu1.data              2                       # Number of read requests responded to by this memory
system.mem_ctrls.num_reads::.switch_cpus0.dtb.walker           90                       # Number of read requests responded to by this memory
system.mem_ctrls.num_reads::.switch_cpus0.itb.walker           35                       # Number of read requests responded to by this memory
system.mem_ctrls.num_reads::.switch_cpus0.inst         2721                       # Number of read requests responded to by this memory
system.mem_ctrls.num_reads::.switch_cpus0.data         3785                       # Number of read requests responded to by this memory
system.mem_ctrls.num_reads::.switch_cpus1.dtb.walker          222                       # Number of read requests responded to by this memory
system.mem_ctrls.num_reads::.switch_cpus1.itb.walker           70                       # Number of read requests responded to by this memory
system.mem_ctrls.num_reads::.switch_cpus1.inst         4940                       # Number of read requests responded to by this memory
system.mem_ctrls.num_reads::.switch_cpus1.data         8587                       # Number of read requests responded to by this memory
system.mem_ctrls.num_reads::total               20460                       # Number of read requests responded to by this memory
system.mem_ctrls.num_writes::.writebacks            7                       # Number of write requests responded to by this memory
system.mem_ctrls.num_writes::total                  7                       # Number of write requests responded to by this memory
system.mem_ctrls.bw_read::.cpu0.inst            78869                       # Total read bandwidth from this memory (bytes/s)
system.mem_ctrls.bw_read::.cpu0.data            78869                       # Total read bandwidth from this memory (bytes/s)
system.mem_ctrls.bw_read::.cpu1.inst           157739                       # Total read bandwidth from this memory (bytes/s)
system.mem_ctrls.bw_read::.cpu1.data            78869                       # Total read bandwidth from this memory (bytes/s)
system.mem_ctrls.bw_read::.switch_cpus0.dtb.walker      3549124                       # Total read bandwidth from this memory (bytes/s)
system.mem_ctrls.bw_read::.switch_cpus0.itb.walker      1380215                       # Total read bandwidth from this memory (bytes/s)
system.mem_ctrls.bw_read::.switch_cpus0.inst    107301861                       # Total read bandwidth from this memory (bytes/s)
system.mem_ctrls.bw_read::.switch_cpus0.data    149260399                       # Total read bandwidth from this memory (bytes/s)
system.mem_ctrls.bw_read::.switch_cpus1.dtb.walker      8754507                       # Total read bandwidth from this memory (bytes/s)
system.mem_ctrls.bw_read::.switch_cpus1.itb.walker      2760430                       # Total read bandwidth from this memory (bytes/s)
system.mem_ctrls.bw_read::.switch_cpus1.inst    194807495                       # Total read bandwidth from this memory (bytes/s)
system.mem_ctrls.bw_read::.switch_cpus1.data    338625903                       # Total read bandwidth from this memory (bytes/s)
system.mem_ctrls.bw_read::total             806834283                       # Total read bandwidth from this memory (bytes/s)
system.mem_ctrls.bw_inst_read::.cpu0.inst        78869                       # Instruction read bandwidth from this memory (bytes/s)
system.mem_ctrls.bw_inst_read::.cpu1.inst       157739                       # Instruction read bandwidth from this memory (bytes/s)
system.mem_ctrls.bw_inst_read::.switch_cpus0.inst    107301861                       # Instruction read bandwidth from this memory (bytes/s)
system.mem_ctrls.bw_inst_read::.switch_cpus1.inst    194807495                       # Instruction read bandwidth from this memory (bytes/s)
system.mem_ctrls.bw_inst_read::total        302345965                       # Instruction read bandwidth from this memory (bytes/s)
system.mem_ctrls.bw_write::.writebacks         276043                       # Write bandwidth from this memory (bytes/s)
system.mem_ctrls.bw_write::total               276043                       # Write bandwidth from this memory (bytes/s)
system.mem_ctrls.bw_total::.writebacks         276043                       # Total bandwidth to/from this memory (bytes/s)
system.mem_ctrls.bw_total::.cpu0.inst           78869                       # Total bandwidth to/from this memory (bytes/s)
system.mem_ctrls.bw_total::.cpu0.data           78869                       # Total bandwidth to/from this memory (bytes/s)
system.mem_ctrls.bw_total::.cpu1.inst          157739                       # Total bandwidth to/from this memory (bytes/s)
system.mem_ctrls.bw_total::.cpu1.data           78869                       # Total bandwidth to/from this memory (bytes/s)
system.mem_ctrls.bw_total::.switch_cpus0.dtb.walker      3549124                       # Total bandwidth to/from this memory (bytes/s)
system.mem_ctrls.bw_total::.switch_cpus0.itb.walker      1380215                       # Total bandwidth to/from this memory (bytes/s)
system.mem_ctrls.bw_total::.switch_cpus0.inst    107301861                       # Total bandwidth to/from this memory (bytes/s)
system.mem_ctrls.bw_total::.switch_cpus0.data    149260399                       # Total bandwidth to/from this memory (bytes/s)
system.mem_ctrls.bw_total::.switch_cpus1.dtb.walker      8754507                       # Total bandwidth to/from this memory (bytes/s)
system.mem_ctrls.bw_total::.switch_cpus1.itb.walker      2760430                       # Total bandwidth to/from this memory (bytes/s)
system.mem_ctrls.bw_total::.switch_cpus1.inst    194807495                       # Total bandwidth to/from this memory (bytes/s)
system.mem_ctrls.bw_total::.switch_cpus1.data    338625903                       # Total bandwidth to/from this memory (bytes/s)
system.mem_ctrls.bw_total::total            807110326                       # Total bandwidth to/from this memory (bytes/s)
system.mem_ctrls.avgPriority_.writebacks::samples         7.00                       # Average QoS priority value for accepted requests
system.mem_ctrls.avgPriority_.switch_cpus0.dtb.walker::samples        90.00                       # Average QoS priority value for accepted requests
system.mem_ctrls.avgPriority_.switch_cpus0.itb.walker::samples        35.00                       # Average QoS priority value for accepted requests
system.mem_ctrls.avgPriority_.switch_cpus0.inst::samples      2721.00                       # Average QoS priority value for accepted requests
system.mem_ctrls.avgPriority_.switch_cpus0.data::samples      3785.00                       # Average QoS priority value for accepted requests
system.mem_ctrls.avgPriority_.switch_cpus1.dtb.walker::samples       222.00                       # Average QoS priority value for accepted requests
system.mem_ctrls.avgPriority_.switch_cpus1.itb.walker::samples        70.00                       # Average QoS priority value for accepted requests
system.mem_ctrls.avgPriority_.switch_cpus1.inst::samples      4940.00                       # Average QoS priority value for accepted requests
system.mem_ctrls.avgPriority_.switch_cpus1.data::samples      8588.00                       # Average QoS priority value for accepted requests
system.mem_ctrls.priorityMinLatency      0.000000018750                       # per QoS priority minimum request to response latency (s)
system.mem_ctrls.priorityMaxLatency      0.000001099750                       # per QoS priority maximum request to response latency (s)
system.mem_ctrls.numReadWriteTurnArounds            0                       # Number of turnarounds from READ to WRITE
system.mem_ctrls.numWriteReadTurnArounds            0                       # Number of turnarounds from WRITE to READ
system.mem_ctrls.numStayReadState               40039                       # Number of times bus staying in READ state
system.mem_ctrls.numStayWriteState                  0                       # Number of times bus staying in WRITE state
system.mem_ctrls.readReqs                       20451                       # Number of read requests accepted
system.mem_ctrls.writeReqs                          7                       # Number of write requests accepted
system.mem_ctrls.readBursts                     20451                       # Number of DRAM read bursts, including those serviced by the write queue
system.mem_ctrls.writeBursts                        7                       # Number of DRAM write bursts, including those merged in the write queue
system.mem_ctrls.bytesReadDRAM                1308864                       # Total number of bytes read from DRAM
system.mem_ctrls.bytesReadWrQ                       0                       # Total number of bytes read from write queue
system.mem_ctrls.bytesWritten                       0                       # Total number of bytes written to DRAM
system.mem_ctrls.bytesReadSys                 1308864                       # Total read bytes from the system interface side
system.mem_ctrls.bytesWrittenSys                  448                       # Total written bytes from the system interface side
system.mem_ctrls.servicedByWrQ                      0                       # Number of DRAM read bursts serviced by the write queue
system.mem_ctrls.mergedWrBursts                     0                       # Number of DRAM write bursts merged with an existing one
system.mem_ctrls.neitherReadNorWriteReqs            0                       # Number of requests that are neither read nor write
system.mem_ctrls.perBankRdBursts::0              1582                       # Per bank write bursts
system.mem_ctrls.perBankRdBursts::1              1293                       # Per bank write bursts
system.mem_ctrls.perBankRdBursts::2              1640                       # Per bank write bursts
system.mem_ctrls.perBankRdBursts::3              1058                       # Per bank write bursts
system.mem_ctrls.perBankRdBursts::4              1475                       # Per bank write bursts
system.mem_ctrls.perBankRdBursts::5               998                       # Per bank write bursts
system.mem_ctrls.perBankRdBursts::6               980                       # Per bank write bursts
system.mem_ctrls.perBankRdBursts::7              1153                       # Per bank write bursts
system.mem_ctrls.perBankRdBursts::8              1518                       # Per bank write bursts
system.mem_ctrls.perBankRdBursts::9              1289                       # Per bank write bursts
system.mem_ctrls.perBankRdBursts::10             1303                       # Per bank write bursts
system.mem_ctrls.perBankRdBursts::11             1554                       # Per bank write bursts
system.mem_ctrls.perBankRdBursts::12             1072                       # Per bank write bursts
system.mem_ctrls.perBankRdBursts::13             1125                       # Per bank write bursts
system.mem_ctrls.perBankRdBursts::14             1343                       # Per bank write bursts
system.mem_ctrls.perBankRdBursts::15             1068                       # Per bank write bursts
system.mem_ctrls.perBankWrBursts::0                 0                       # Per bank write bursts
system.mem_ctrls.perBankWrBursts::1                 0                       # Per bank write bursts
system.mem_ctrls.perBankWrBursts::2                 0                       # Per bank write bursts
system.mem_ctrls.perBankWrBursts::3                 0                       # Per bank write bursts
system.mem_ctrls.perBankWrBursts::4                 0                       # Per bank write bursts
system.mem_ctrls.perBankWrBursts::5                 0                       # Per bank write bursts
system.mem_ctrls.perBankWrBursts::6                 0                       # Per bank write bursts
system.mem_ctrls.perBankWrBursts::7                 0                       # Per bank write bursts
system.mem_ctrls.perBankWrBursts::8                 0                       # Per bank write bursts
system.mem_ctrls.perBankWrBursts::9                 0                       # Per bank write bursts
system.mem_ctrls.perBankWrBursts::10                0                       # Per bank write bursts
system.mem_ctrls.perBankWrBursts::11                0                       # Per bank write bursts
system.mem_ctrls.perBankWrBursts::12                0                       # Per bank write bursts
system.mem_ctrls.perBankWrBursts::13                0                       # Per bank write bursts
system.mem_ctrls.perBankWrBursts::14                0                       # Per bank write bursts
system.mem_ctrls.perBankWrBursts::15                0                       # Per bank write bursts
system.mem_ctrls.numRdRetry                         0                       # Number of times read queue was full causing retry
system.mem_ctrls.numWrRetry                         0                       # Number of times write queue was full causing retry
system.mem_ctrls.totGap                    1622896500                       # Total gap between requests
system.mem_ctrls.readPktSize::0                     0                       # Read request sizes (log2)
system.mem_ctrls.readPktSize::1                     0                       # Read request sizes (log2)
system.mem_ctrls.readPktSize::2                     0                       # Read request sizes (log2)
system.mem_ctrls.readPktSize::3                     0                       # Read request sizes (log2)
system.mem_ctrls.readPktSize::4                     0                       # Read request sizes (log2)
system.mem_ctrls.readPktSize::5                     0                       # Read request sizes (log2)
system.mem_ctrls.readPktSize::6                 20451                       # Read request sizes (log2)
system.mem_ctrls.writePktSize::0                    0                       # Write request sizes (log2)
system.mem_ctrls.writePktSize::1                    0                       # Write request sizes (log2)
system.mem_ctrls.writePktSize::2                    0                       # Write request sizes (log2)
system.mem_ctrls.writePktSize::3                    0                       # Write request sizes (log2)
system.mem_ctrls.writePktSize::4                    0                       # Write request sizes (log2)
system.mem_ctrls.writePktSize::5                    0                       # Write request sizes (log2)
system.mem_ctrls.writePktSize::6                    7                       # Write request sizes (log2)
system.mem_ctrls.rdQLenPdf::0                   12152                       # What read queue length does an incoming req see
system.mem_ctrls.rdQLenPdf::1                    5591                       # What read queue length does an incoming req see
system.mem_ctrls.rdQLenPdf::2                    1923                       # What read queue length does an incoming req see
system.mem_ctrls.rdQLenPdf::3                     567                       # What read queue length does an incoming req see
system.mem_ctrls.rdQLenPdf::4                     165                       # What read queue length does an incoming req see
system.mem_ctrls.rdQLenPdf::5                      37                       # What read queue length does an incoming req see
system.mem_ctrls.rdQLenPdf::6                      13                       # What read queue length does an incoming req see
system.mem_ctrls.rdQLenPdf::7                       3                       # What read queue length does an incoming req see
system.mem_ctrls.rdQLenPdf::8                       0                       # What read queue length does an incoming req see
system.mem_ctrls.rdQLenPdf::9                       0                       # What read queue length does an incoming req see
system.mem_ctrls.rdQLenPdf::10                      0                       # What read queue length does an incoming req see
system.mem_ctrls.rdQLenPdf::11                      0                       # What read queue length does an incoming req see
system.mem_ctrls.rdQLenPdf::12                      0                       # What read queue length does an incoming req see
system.mem_ctrls.rdQLenPdf::13                      0                       # What read queue length does an incoming req see
system.mem_ctrls.rdQLenPdf::14                      0                       # What read queue length does an incoming req see
system.mem_ctrls.rdQLenPdf::15                      0                       # What read queue length does an incoming req see
system.mem_ctrls.rdQLenPdf::16                      0                       # What read queue length does an incoming req see
system.mem_ctrls.rdQLenPdf::17                      0                       # What read queue length does an incoming req see
system.mem_ctrls.rdQLenPdf::18                      0                       # What read queue length does an incoming req see
system.mem_ctrls.rdQLenPdf::19                      0                       # What read queue length does an incoming req see
system.mem_ctrls.rdQLenPdf::20                      0                       # What read queue length does an incoming req see
system.mem_ctrls.rdQLenPdf::21                      0                       # What read queue length does an incoming req see
system.mem_ctrls.rdQLenPdf::22                      0                       # What read queue length does an incoming req see
system.mem_ctrls.rdQLenPdf::23                      0                       # What read queue length does an incoming req see
system.mem_ctrls.rdQLenPdf::24                      0                       # What read queue length does an incoming req see
system.mem_ctrls.rdQLenPdf::25                      0                       # What read queue length does an incoming req see
system.mem_ctrls.rdQLenPdf::26                      0                       # What read queue length does an incoming req see
system.mem_ctrls.rdQLenPdf::27                      0                       # What read queue length does an incoming req see
system.mem_ctrls.rdQLenPdf::28                      0                       # What read queue length does an incoming req see
system.mem_ctrls.rdQLenPdf::29                      0                       # What read queue length does an incoming req see
system.mem_ctrls.rdQLenPdf::30                      0                       # What read queue length does an incoming req see
system.mem_ctrls.rdQLenPdf::31                      0                       # What read queue length does an incoming req see
system.mem_ctrls.wrQLenPdf::0                       1                       # What write queue length does an incoming req see
system.mem_ctrls.wrQLenPdf::1                       1                       # What write queue length does an incoming req see
system.mem_ctrls.wrQLenPdf::2                       1                       # What write queue length does an incoming req see
system.mem_ctrls.wrQLenPdf::3                       1                       # What write queue length does an incoming req see
system.mem_ctrls.wrQLenPdf::4                       1                       # What write queue length does an incoming req see
system.mem_ctrls.wrQLenPdf::5                       1                       # What write queue length does an incoming req see
system.mem_ctrls.wrQLenPdf::6                       1                       # What write queue length does an incoming req see
system.mem_ctrls.wrQLenPdf::7                       0                       # What write queue length does an incoming req see
system.mem_ctrls.wrQLenPdf::8                       0                       # What write queue length does an incoming req see
system.mem_ctrls.wrQLenPdf::9                       0                       # What write queue length does an incoming req see
system.mem_ctrls.wrQLenPdf::10                      0                       # What write queue length does an incoming req see
system.mem_ctrls.wrQLenPdf::11                      0                       # What write queue length does an incoming req see
system.mem_ctrls.wrQLenPdf::12                      0                       # What write queue length does an incoming req see
system.mem_ctrls.wrQLenPdf::13                      0                       # What write queue length does an incoming req see
system.mem_ctrls.wrQLenPdf::14                      0                       # What write queue length does an incoming req see
system.mem_ctrls.wrQLenPdf::15                      0                       # What write queue length does an incoming req see
system.mem_ctrls.wrQLenPdf::16                      0                       # What write queue length does an incoming req see
system.mem_ctrls.wrQLenPdf::17                      0                       # What write queue length does an incoming req see
system.mem_ctrls.wrQLenPdf::18                      0                       # What write queue length does an incoming req see
system.mem_ctrls.wrQLenPdf::19                      0                       # What write queue length does an incoming req see
system.mem_ctrls.wrQLenPdf::20                      0                       # What write queue length does an incoming req see
system.mem_ctrls.wrQLenPdf::21                      0                       # What write queue length does an incoming req see
system.mem_ctrls.wrQLenPdf::22                      0                       # What write queue length does an incoming req see
system.mem_ctrls.wrQLenPdf::23                      0                       # What write queue length does an incoming req see
system.mem_ctrls.wrQLenPdf::24                      0                       # What write queue length does an incoming req see
system.mem_ctrls.wrQLenPdf::25                      0                       # What write queue length does an incoming req see
system.mem_ctrls.wrQLenPdf::26                      0                       # What write queue length does an incoming req see
system.mem_ctrls.wrQLenPdf::27                      0                       # What write queue length does an incoming req see
system.mem_ctrls.wrQLenPdf::28                      0                       # What write queue length does an incoming req see
system.mem_ctrls.wrQLenPdf::29                      0                       # What write queue length does an incoming req see
system.mem_ctrls.wrQLenPdf::30                      0                       # What write queue length does an incoming req see
system.mem_ctrls.wrQLenPdf::31                      0                       # What write queue length does an incoming req see
system.mem_ctrls.wrQLenPdf::32                      0                       # What write queue length does an incoming req see
system.mem_ctrls.wrQLenPdf::33                      0                       # What write queue length does an incoming req see
system.mem_ctrls.wrQLenPdf::34                      0                       # What write queue length does an incoming req see
system.mem_ctrls.wrQLenPdf::35                      0                       # What write queue length does an incoming req see
system.mem_ctrls.wrQLenPdf::36                      0                       # What write queue length does an incoming req see
system.mem_ctrls.wrQLenPdf::37                      0                       # What write queue length does an incoming req see
system.mem_ctrls.wrQLenPdf::38                      0                       # What write queue length does an incoming req see
system.mem_ctrls.wrQLenPdf::39                      0                       # What write queue length does an incoming req see
system.mem_ctrls.wrQLenPdf::40                      0                       # What write queue length does an incoming req see
system.mem_ctrls.wrQLenPdf::41                      0                       # What write queue length does an incoming req see
system.mem_ctrls.wrQLenPdf::42                      0                       # What write queue length does an incoming req see
system.mem_ctrls.wrQLenPdf::43                      0                       # What write queue length does an incoming req see
system.mem_ctrls.wrQLenPdf::44                      0                       # What write queue length does an incoming req see
system.mem_ctrls.wrQLenPdf::45                      0                       # What write queue length does an incoming req see
system.mem_ctrls.wrQLenPdf::46                      0                       # What write queue length does an incoming req see
system.mem_ctrls.wrQLenPdf::47                      0                       # What write queue length does an incoming req see
system.mem_ctrls.wrQLenPdf::48                      0                       # What write queue length does an incoming req see
system.mem_ctrls.wrQLenPdf::49                      0                       # What write queue length does an incoming req see
system.mem_ctrls.wrQLenPdf::50                      0                       # What write queue length does an incoming req see
system.mem_ctrls.wrQLenPdf::51                      0                       # What write queue length does an incoming req see
system.mem_ctrls.wrQLenPdf::52                      0                       # What write queue length does an incoming req see
system.mem_ctrls.wrQLenPdf::53                      0                       # What write queue length does an incoming req see
system.mem_ctrls.wrQLenPdf::54                      0                       # What write queue length does an incoming req see
system.mem_ctrls.wrQLenPdf::55                      0                       # What write queue length does an incoming req see
system.mem_ctrls.wrQLenPdf::56                      0                       # What write queue length does an incoming req see
system.mem_ctrls.wrQLenPdf::57                      0                       # What write queue length does an incoming req see
system.mem_ctrls.wrQLenPdf::58                      0                       # What write queue length does an incoming req see
system.mem_ctrls.wrQLenPdf::59                      0                       # What write queue length does an incoming req see
system.mem_ctrls.wrQLenPdf::60                      0                       # What write queue length does an incoming req see
system.mem_ctrls.wrQLenPdf::61                      0                       # What write queue length does an incoming req see
system.mem_ctrls.wrQLenPdf::62                      0                       # What write queue length does an incoming req see
system.mem_ctrls.wrQLenPdf::63                      0                       # What write queue length does an incoming req see
system.mem_ctrls.bytesPerActivate::samples         6167                       # Bytes accessed per row activation
system.mem_ctrls.bytesPerActivate::mean    212.164099                       # Bytes accessed per row activation
system.mem_ctrls.bytesPerActivate::gmean   130.255062                       # Bytes accessed per row activation
system.mem_ctrls.bytesPerActivate::stdev   261.256231                       # Bytes accessed per row activation
system.mem_ctrls.bytesPerActivate::0-127         3155     51.16%     51.16% # Bytes accessed per row activation
system.mem_ctrls.bytesPerActivate::128-255         1479     23.98%     75.14% # Bytes accessed per row activation
system.mem_ctrls.bytesPerActivate::256-383          536      8.69%     83.83% # Bytes accessed per row activation
system.mem_ctrls.bytesPerActivate::384-511          256      4.15%     87.98% # Bytes accessed per row activation
system.mem_ctrls.bytesPerActivate::512-639          153      2.48%     90.47% # Bytes accessed per row activation
system.mem_ctrls.bytesPerActivate::640-767           90      1.46%     91.92% # Bytes accessed per row activation
system.mem_ctrls.bytesPerActivate::768-895           79      1.28%     93.21% # Bytes accessed per row activation
system.mem_ctrls.bytesPerActivate::896-1023           54      0.88%     94.08% # Bytes accessed per row activation
system.mem_ctrls.bytesPerActivate::1024-1151          365      5.92%    100.00% # Bytes accessed per row activation
system.mem_ctrls.bytesPerActivate::total         6167                       # Bytes accessed per row activation
system.mem_ctrls.masterReadBytes::.switch_cpus0.dtb.walker         5760                       # Per-master bytes read from memory
system.mem_ctrls.masterReadBytes::.switch_cpus0.itb.walker         2240                       # Per-master bytes read from memory
system.mem_ctrls.masterReadBytes::.switch_cpus0.inst       174144                       # Per-master bytes read from memory
system.mem_ctrls.masterReadBytes::.switch_cpus0.data       242240                       # Per-master bytes read from memory
system.mem_ctrls.masterReadBytes::.switch_cpus1.dtb.walker        14208                       # Per-master bytes read from memory
system.mem_ctrls.masterReadBytes::.switch_cpus1.itb.walker         4480                       # Per-master bytes read from memory
system.mem_ctrls.masterReadBytes::.switch_cpus1.inst       316160                       # Per-master bytes read from memory
system.mem_ctrls.masterReadBytes::.switch_cpus1.data       549632                       # Per-master bytes read from memory
system.mem_ctrls.masterReadRate::.switch_cpus0.dtb.walker 3549124.410674361512                       # Per-master bytes read from memory rate (Bytes/sec)
system.mem_ctrls.masterReadRate::.switch_cpus0.itb.walker 1380215.048595584929                       # Per-master bytes read from memory rate (Bytes/sec)
system.mem_ctrls.masterReadRate::.switch_cpus0.inst 107301861.349388197064                       # Per-master bytes read from memory rate (Bytes/sec)
system.mem_ctrls.masterReadRate::.switch_cpus0.data 149260398.826693981886                       # Per-master bytes read from memory rate (Bytes/sec)
system.mem_ctrls.masterReadRate::.switch_cpus1.dtb.walker 8754506.879663424566                       # Per-master bytes read from memory rate (Bytes/sec)
system.mem_ctrls.masterReadRate::.switch_cpus1.itb.walker 2760430.097191169858                       # Per-master bytes read from memory rate (Bytes/sec)
system.mem_ctrls.masterReadRate::.switch_cpus1.inst 194807495.430348277092                       # Per-master bytes read from memory rate (Bytes/sec)
system.mem_ctrls.masterReadRate::.switch_cpus1.data 338665338.209682404995                       # Per-master bytes read from memory rate (Bytes/sec)
system.mem_ctrls.masterReadAccesses::.switch_cpus0.dtb.walker           90                       # Per-master read serviced memory accesses
system.mem_ctrls.masterReadAccesses::.switch_cpus0.itb.walker           35                       # Per-master read serviced memory accesses
system.mem_ctrls.masterReadAccesses::.switch_cpus0.inst         2721                       # Per-master read serviced memory accesses
system.mem_ctrls.masterReadAccesses::.switch_cpus0.data         3785                       # Per-master read serviced memory accesses
system.mem_ctrls.masterReadAccesses::.switch_cpus1.dtb.walker          222                       # Per-master read serviced memory accesses
system.mem_ctrls.masterReadAccesses::.switch_cpus1.itb.walker           70                       # Per-master read serviced memory accesses
system.mem_ctrls.masterReadAccesses::.switch_cpus1.inst         4940                       # Per-master read serviced memory accesses
system.mem_ctrls.masterReadAccesses::.switch_cpus1.data         8588                       # Per-master read serviced memory accesses
system.mem_ctrls.masterWriteAccesses::.writebacks            7                       # Per-master write serviced memory accesses
system.mem_ctrls.masterReadTotalLat::.switch_cpus0.dtb.walker      4506250                       # Per-master read total memory access latency
system.mem_ctrls.masterReadTotalLat::.switch_cpus0.itb.walker      1613750                       # Per-master read total memory access latency
system.mem_ctrls.masterReadTotalLat::.switch_cpus0.inst    101407500                       # Per-master read total memory access latency
system.mem_ctrls.masterReadTotalLat::.switch_cpus0.data    145860000                       # Per-master read total memory access latency
system.mem_ctrls.masterReadTotalLat::.switch_cpus1.dtb.walker     11868250                       # Per-master read total memory access latency
system.mem_ctrls.masterReadTotalLat::.switch_cpus1.itb.walker      3889250                       # Per-master read total memory access latency
system.mem_ctrls.masterReadTotalLat::.switch_cpus1.inst    180419750                       # Per-master read total memory access latency
system.mem_ctrls.masterReadTotalLat::.switch_cpus1.data    310780000                       # Per-master read total memory access latency
system.mem_ctrls.masterReadAvgLat::.switch_cpus0.dtb.walker     50069.44                       # Per-master read average memory access latency
system.mem_ctrls.masterReadAvgLat::.switch_cpus0.itb.walker     46107.14                       # Per-master read average memory access latency
system.mem_ctrls.masterReadAvgLat::.switch_cpus0.inst     37268.47                       # Per-master read average memory access latency
system.mem_ctrls.masterReadAvgLat::.switch_cpus0.data     38536.33                       # Per-master read average memory access latency
system.mem_ctrls.masterReadAvgLat::.switch_cpus1.dtb.walker     53460.59                       # Per-master read average memory access latency
system.mem_ctrls.masterReadAvgLat::.switch_cpus1.itb.walker     55560.71                       # Per-master read average memory access latency
system.mem_ctrls.masterReadAvgLat::.switch_cpus1.inst     36522.22                       # Per-master read average memory access latency
system.mem_ctrls.masterReadAvgLat::.switch_cpus1.data     36187.70                       # Per-master read average memory access latency
system.mem_ctrls.masterWriteAvgLat::.writebacks         0.00                       # Per-master write average memory access latency
system.mem_ctrls.totQLat                    376888500                       # Total ticks spent queuing
system.mem_ctrls.totMemAccLat               760344750                       # Total ticks spent from burst creation until serviced by the DRAM
system.mem_ctrls.totBusLat                  102255000                       # Total ticks spent in databus transfers
system.mem_ctrls.avgQLat                     18428.85                       # Average queueing delay per DRAM burst
system.mem_ctrls.avgBusLat                    5000.00                       # Average bus latency per DRAM burst
system.mem_ctrls.avgMemAccLat                37178.85                       # Average memory access latency per DRAM burst
system.mem_ctrls.avgRdBW                       806.48                       # Average DRAM read bandwidth in MiByte/s
system.mem_ctrls.avgWrBW                         0.00                       # Average achieved write bandwidth in MiByte/s
system.mem_ctrls.avgRdBWSys                    806.48                       # Average system read bandwidth in MiByte/s
system.mem_ctrls.avgWrBWSys                      0.28                       # Average system write bandwidth in MiByte/s
system.mem_ctrls.peakBW                      12800.00                       # Theoretical peak bandwidth in MiByte/s
system.mem_ctrls.busUtil                         6.30                       # Data bus utilization in percentage
system.mem_ctrls.busUtilRead                     6.30                       # Data bus utilization in percentage for reads
system.mem_ctrls.busUtilWrite                    0.00                       # Data bus utilization in percentage for writes
system.mem_ctrls.avgRdQLen                       1.46                       # Average read queue length when enqueuing
system.mem_ctrls.avgWrQLen                       1.89                       # Average write queue length when enqueuing
system.mem_ctrls.readRowHits                    14282                       # Number of row buffer hits during reads
system.mem_ctrls.writeRowHits                       0                       # Number of row buffer hits during writes
system.mem_ctrls.readRowHitRate                 69.84                       # Row buffer hit rate for reads
system.mem_ctrls.writeRowHitRate                 0.00                       # Row buffer hit rate for writes
system.mem_ctrls.avgGap                      79328.21                       # Average gap between requests
system.mem_ctrls.pageHitRate                    69.81                       # Row buffer hit rate, read and write combined
system.mem_ctrls_0.actEnergy                 22462440                       # Energy for activate commands per rank (pJ)
system.mem_ctrls_0.preEnergy                 11931480                       # Energy for precharge commands per rank (pJ)
system.mem_ctrls_0.readEnergy                72678060                       # Energy for read commands per rank (pJ)
system.mem_ctrls_0.writeEnergy                      0                       # Energy for write commands per rank (pJ)
system.mem_ctrls_0.refreshEnergy         124771920.000000                       # Energy for refresh commands per rank (pJ)
system.mem_ctrls_0.actBackEnergy            152183730                       # Energy for active background per rank (pJ)
system.mem_ctrls_0.preBackEnergy              3264000                       # Energy for precharge background per rank (pJ)
system.mem_ctrls_0.actPowerDownEnergy       504906000                       # Energy for active power-down per rank (pJ)
system.mem_ctrls_0.prePowerDownEnergy        51083040                       # Energy for precharge power-down per rank (pJ)
system.mem_ctrls_0.selfRefreshEnergy         11904060                       # Energy for self refresh per rank (pJ)
system.mem_ctrls_0.totalEnergy              955184730                       # Total energy per rank (pJ)
system.mem_ctrls_0.averagePower            588.553723                       # Core power per rank (mW)
system.mem_ctrls_0.totalIdleTime           1280734250                       # Total Idle time Per DRAM Rank
system.mem_ctrls_0.memoryStateTime::IDLE      2208000                       # Time in different power states
system.mem_ctrls_0.memoryStateTime::REF      52780000                       # Time in different power states
system.mem_ctrls_0.memoryStateTime::SREF     40396750                       # Time in different power states
system.mem_ctrls_0.memoryStateTime::PRE_PDN    133044500                       # Time in different power states
system.mem_ctrls_0.memoryStateTime::ACT     287202250                       # Time in different power states
system.mem_ctrls_0.memoryStateTime::ACT_PDN   1107293000                       # Time in different power states
system.mem_ctrls_1.actEnergy                 21584220                       # Energy for activate commands per rank (pJ)
system.mem_ctrls_1.preEnergy                 11472285                       # Energy for precharge commands per rank (pJ)
system.mem_ctrls_1.readEnergy                73342080                       # Energy for read commands per rank (pJ)
system.mem_ctrls_1.writeEnergy                      0                       # Energy for write commands per rank (pJ)
system.mem_ctrls_1.refreshEnergy         127230480.000000                       # Energy for refresh commands per rank (pJ)
system.mem_ctrls_1.actBackEnergy            151249500                       # Energy for active background per rank (pJ)
system.mem_ctrls_1.preBackEnergy              3445440                       # Energy for precharge background per rank (pJ)
system.mem_ctrls_1.actPowerDownEnergy       517699080                       # Energy for active power-down per rank (pJ)
system.mem_ctrls_1.prePowerDownEnergy        52467840                       # Energy for precharge power-down per rank (pJ)
system.mem_ctrls_1.selfRefreshEnergy          4152720                       # Energy for self refresh per rank (pJ)
system.mem_ctrls_1.totalEnergy              962748675                       # Total energy per rank (pJ)
system.mem_ctrls_1.averagePower            593.214379                       # Core power per rank (mW)
system.mem_ctrls_1.totalIdleTime           1282175750                       # Total Idle time Per DRAM Rank
system.mem_ctrls_1.memoryStateTime::IDLE      2064000                       # Time in different power states
system.mem_ctrls_1.memoryStateTime::REF      53718000                       # Time in different power states
system.mem_ctrls_1.memoryStateTime::SREF     10165000                       # Time in different power states
system.mem_ctrls_1.memoryStateTime::PRE_PDN    136612250                       # Time in different power states
system.mem_ctrls_1.memoryStateTime::ACT     284966750                       # Time in different power states
system.mem_ctrls_1.memoryStateTime::ACT_PDN   1135398500                       # Time in different power states
system.pwrStateResidencyTicks::UNDEFINED 2366613740500                       # Cumulative time (in ticks) in various power states
system.apicbridge.pwrStateResidencyTicks::UNDEFINED 2366613740500                       # Cumulative time (in ticks) in various power states
system.bridge.pwrStateResidencyTicks::UNDEFINED 2366613740500                       # Cumulative time (in ticks) in various power states
system.cpu_voltage_domain.voltage                   1                       # Voltage in Volts
system.cpu_clk_domain.clock                       500                       # Clock period in ticks
system.cpu0.dtb.walker.pwrStateResidencyTicks::UNDEFINED 2366613740500                       # Cumulative time (in ticks) in various power states
system.cpu0.dtb.rdAccesses                          4                       # TLB accesses on read requests
system.cpu0.dtb.wrAccesses                          0                       # TLB accesses on write requests
system.cpu0.dtb.rdMisses                            0                       # TLB misses on read requests
system.cpu0.dtb.wrMisses                            0                       # TLB misses on write requests
system.cpu0.apic_clk_domain.clock                8000                       # Clock period in ticks
system.cpu0.interrupts.pwrStateResidencyTicks::UNDEFINED 2366613740500                       # Cumulative time (in ticks) in various power states
system.cpu0.itb.walker.pwrStateResidencyTicks::UNDEFINED 2366613740500                       # Cumulative time (in ticks) in various power states
system.cpu0.itb.rdAccesses                          0                       # TLB accesses on read requests
system.cpu0.itb.wrAccesses                          8                       # TLB accesses on write requests
system.cpu0.itb.rdMisses                            0                       # TLB misses on read requests
system.cpu0.itb.wrMisses                            0                       # TLB misses on write requests
system.cpu0.numPwrStateTransitions                  1                       # Number of power state transitions
system.cpu0.pwrStateResidencyTicks::ON          11000                       # Cumulative time (in ticks) in various power states
system.cpu0.pwrStateResidencyTicks::OFF    1622924500                       # Cumulative time (in ticks) in various power states
system.cpu0.numCycles                              22                       # number of cpu cycles simulated
system.cpu0.numWorkItemsStarted                     0                       # number of work items this cpu started
system.cpu0.numWorkItemsCompleted                   0                       # number of work items this cpu completed
system.cpu0.kern.inst.arm                           0                       # number of arm instructions executed
system.cpu0.kern.inst.quiesce                       0                       # number of quiesce instructions executed
system.cpu0.committedInsts                          7                       # Number of instructions committed
system.cpu0.committedOps                           21                       # Number of ops (including micro ops) committed
system.cpu0.num_int_alu_accesses                    9                       # Number of integer alu accesses
system.cpu0.num_fp_alu_accesses                    12                       # Number of float alu accesses
system.cpu0.num_vec_alu_accesses                    0                       # Number of vector alu accesses
system.cpu0.num_func_calls                          0                       # number of times a function call or return occured
system.cpu0.num_conditional_control_insts            2                       # number of instructions that are conditional controls
system.cpu0.num_int_insts                           9                       # number of integer instructions
system.cpu0.num_fp_insts                           12                       # number of float instructions
system.cpu0.num_vec_insts                           0                       # number of vector instructions
system.cpu0.num_int_register_reads                 20                       # number of times the integer registers were read
system.cpu0.num_int_register_writes                 4                       # number of times the integer registers were written
system.cpu0.num_fp_register_reads                  18                       # number of times the floating registers were read
system.cpu0.num_fp_register_writes                 12                       # number of times the floating registers were written
system.cpu0.num_vec_register_reads                  0                       # number of times the vector registers were read
system.cpu0.num_vec_register_writes                 0                       # number of times the vector registers were written
system.cpu0.num_cc_register_reads                  10                       # number of times the CC registers were read
system.cpu0.num_cc_register_writes                  2                       # number of times the CC registers were written
system.cpu0.num_mem_refs                            4                       # number of memory refs
system.cpu0.num_load_insts                          4                       # Number of load instructions
system.cpu0.num_store_insts                         0                       # Number of store instructions
system.cpu0.num_idle_cycles                         0                       # Number of idle cycles
system.cpu0.num_busy_cycles                        22                       # Number of busy cycles
system.cpu0.not_idle_fraction                       1                       # Percentage of non-idle cycles
system.cpu0.idle_fraction                           0                       # Percentage of idle cycles
system.cpu0.Branches                                4                       # Number of branches fetched
system.cpu0.op_class::No_OpClass                    4     19.05%     19.05% # Class of executed instruction
system.cpu0.op_class::IntAlu                        5     23.81%     42.86% # Class of executed instruction
system.cpu0.op_class::IntMult                       0      0.00%     42.86% # Class of executed instruction
system.cpu0.op_class::IntDiv                        0      0.00%     42.86% # Class of executed instruction
system.cpu0.op_class::FloatAdd                      1      4.76%     47.62% # Class of executed instruction
system.cpu0.op_class::FloatCmp                      0      0.00%     47.62% # Class of executed instruction
system.cpu0.op_class::FloatCvt                      0      0.00%     47.62% # Class of executed instruction
system.cpu0.op_class::FloatMult                     0      0.00%     47.62% # Class of executed instruction
system.cpu0.op_class::FloatMultAcc                  0      0.00%     47.62% # Class of executed instruction
system.cpu0.op_class::FloatDiv                      0      0.00%     47.62% # Class of executed instruction
system.cpu0.op_class::FloatMisc                     0      0.00%     47.62% # Class of executed instruction
system.cpu0.op_class::FloatSqrt                     0      0.00%     47.62% # Class of executed instruction
system.cpu0.op_class::SimdAdd                       0      0.00%     47.62% # Class of executed instruction
system.cpu0.op_class::SimdAddAcc                    0      0.00%     47.62% # Class of executed instruction
system.cpu0.op_class::SimdAlu                       2      9.52%     57.14% # Class of executed instruction
system.cpu0.op_class::SimdCmp                       0      0.00%     57.14% # Class of executed instruction
system.cpu0.op_class::SimdCvt                       4     19.05%     76.19% # Class of executed instruction
system.cpu0.op_class::SimdMisc                      0      0.00%     76.19% # Class of executed instruction
system.cpu0.op_class::SimdMult                      0      0.00%     76.19% # Class of executed instruction
system.cpu0.op_class::SimdMultAcc                   0      0.00%     76.19% # Class of executed instruction
system.cpu0.op_class::SimdShift                     1      4.76%     80.95% # Class of executed instruction
system.cpu0.op_class::SimdShiftAcc                  0      0.00%     80.95% # Class of executed instruction
system.cpu0.op_class::SimdSqrt                      0      0.00%     80.95% # Class of executed instruction
system.cpu0.op_class::SimdFloatAdd                  0      0.00%     80.95% # Class of executed instruction
system.cpu0.op_class::SimdFloatAlu                  0      0.00%     80.95% # Class of executed instruction
system.cpu0.op_class::SimdFloatCmp                  0      0.00%     80.95% # Class of executed instruction
system.cpu0.op_class::SimdFloatCvt                  0      0.00%     80.95% # Class of executed instruction
system.cpu0.op_class::SimdFloatDiv                  0      0.00%     80.95% # Class of executed instruction
system.cpu0.op_class::SimdFloatMisc                 0      0.00%     80.95% # Class of executed instruction
system.cpu0.op_class::SimdFloatMult                 0      0.00%     80.95% # Class of executed instruction
system.cpu0.op_class::SimdFloatMultAcc              0      0.00%     80.95% # Class of executed instruction
system.cpu0.op_class::SimdFloatSqrt                 0      0.00%     80.95% # Class of executed instruction
system.cpu0.op_class::SimdAes                       0      0.00%     80.95% # Class of executed instruction
system.cpu0.op_class::SimdAesMix                    0      0.00%     80.95% # Class of executed instruction
system.cpu0.op_class::SimdSha1Hash                  0      0.00%     80.95% # Class of executed instruction
system.cpu0.op_class::SimdSha1Hash2                 0      0.00%     80.95% # Class of executed instruction
system.cpu0.op_class::SimdSha256Hash                0      0.00%     80.95% # Class of executed instruction
system.cpu0.op_class::SimdSha256Hash2               0      0.00%     80.95% # Class of executed instruction
system.cpu0.op_class::SimdShaSigma2                 0      0.00%     80.95% # Class of executed instruction
system.cpu0.op_class::SimdShaSigma3                 0      0.00%     80.95% # Class of executed instruction
system.cpu0.op_class::MemRead                       0      0.00%     80.95% # Class of executed instruction
system.cpu0.op_class::MemWrite                      0      0.00%     80.95% # Class of executed instruction
system.cpu0.op_class::FloatMemRead                  4     19.05%    100.00% # Class of executed instruction
system.cpu0.op_class::FloatMemWrite                 0      0.00%    100.00% # Class of executed instruction
system.cpu0.op_class::IprAccess                     0      0.00%    100.00% # Class of executed instruction
system.cpu0.op_class::InstPrefetch                  0      0.00%    100.00% # Class of executed instruction
system.cpu0.op_class::total                        21                       # Class of executed instruction
system.cpu0.dcache.tags.pwrStateResidencyTicks::UNDEFINED 2366613740500                       # Cumulative time (in ticks) in various power states
system.cpu0.dcache.tags.tagsinuse          484.580105                       # Cycle average of tags in use
system.cpu0.dcache.tags.total_refs             776582                       # Total number of references to valid blocks.
system.cpu0.dcache.tags.sampled_refs             6492                       # Sample count of references to valid blocks.
system.cpu0.dcache.tags.avg_refs           119.621380                       # Average number of references to valid blocks.
system.cpu0.dcache.tags.warmup_cycle     2364990807000                       # Cycle when the warmup percentage was hit.
system.cpu0.dcache.tags.occ_blocks::.cpu0.data     0.249735                       # Average occupied blocks per requestor
system.cpu0.dcache.tags.occ_blocks::.switch_cpus0.data   484.330370                       # Average occupied blocks per requestor
system.cpu0.dcache.tags.occ_percent::.cpu0.data     0.000488                       # Average percentage of cache occupancy
system.cpu0.dcache.tags.occ_percent::.switch_cpus0.data     0.945958                       # Average percentage of cache occupancy
system.cpu0.dcache.tags.occ_percent::total     0.946446                       # Average percentage of cache occupancy
system.cpu0.dcache.tags.occ_task_id_blocks::1024          512                       # Occupied blocks per task id
system.cpu0.dcache.tags.age_task_id_blocks_1024::0            1                       # Occupied blocks per task id
system.cpu0.dcache.tags.age_task_id_blocks_1024::1           18                       # Occupied blocks per task id
system.cpu0.dcache.tags.age_task_id_blocks_1024::2          493                       # Occupied blocks per task id
system.cpu0.dcache.tags.occ_task_id_percent::1024            1                       # Percentage of cache occupancy per task id
system.cpu0.dcache.tags.tag_accesses          6244468                       # Number of tag accesses
system.cpu0.dcache.tags.data_accesses         6244468                       # Number of data accesses
system.cpu0.dcache.pwrStateResidencyTicks::UNDEFINED 2366613740500                       # Cumulative time (in ticks) in various power states
system.cpu0.dcache.ReadReq_hits::.cpu0.data            2                       # number of ReadReq hits
system.cpu0.dcache.ReadReq_hits::.switch_cpus0.data       661252                       # number of ReadReq hits
system.cpu0.dcache.ReadReq_hits::total         661254                       # number of ReadReq hits
system.cpu0.dcache.WriteReq_hits::.switch_cpus0.data       108721                       # number of WriteReq hits
system.cpu0.dcache.WriteReq_hits::total        108721                       # number of WriteReq hits
system.cpu0.dcache.SoftPFReq_hits::.switch_cpus0.data           32                       # number of SoftPFReq hits
system.cpu0.dcache.SoftPFReq_hits::total           32                       # number of SoftPFReq hits
system.cpu0.dcache.demand_hits::.cpu0.data            2                       # number of demand (read+write) hits
system.cpu0.dcache.demand_hits::.switch_cpus0.data       769973                       # number of demand (read+write) hits
system.cpu0.dcache.demand_hits::total          769975                       # number of demand (read+write) hits
system.cpu0.dcache.overall_hits::.cpu0.data            2                       # number of overall hits
system.cpu0.dcache.overall_hits::.switch_cpus0.data       770005                       # number of overall hits
system.cpu0.dcache.overall_hits::total         770007                       # number of overall hits
system.cpu0.dcache.ReadReq_misses::.cpu0.data            2                       # number of ReadReq misses
system.cpu0.dcache.ReadReq_misses::.switch_cpus0.data         6483                       # number of ReadReq misses
system.cpu0.dcache.ReadReq_misses::total         6485                       # number of ReadReq misses
system.cpu0.dcache.WriteReq_misses::.switch_cpus0.data         2917                       # number of WriteReq misses
system.cpu0.dcache.WriteReq_misses::total         2917                       # number of WriteReq misses
system.cpu0.dcache.SoftPFReq_misses::.switch_cpus0.data          338                       # number of SoftPFReq misses
system.cpu0.dcache.SoftPFReq_misses::total          338                       # number of SoftPFReq misses
system.cpu0.dcache.demand_misses::.cpu0.data            2                       # number of demand (read+write) misses
system.cpu0.dcache.demand_misses::.switch_cpus0.data         9400                       # number of demand (read+write) misses
system.cpu0.dcache.demand_misses::total          9402                       # number of demand (read+write) misses
system.cpu0.dcache.overall_misses::.cpu0.data            2                       # number of overall misses
system.cpu0.dcache.overall_misses::.switch_cpus0.data         9738                       # number of overall misses
system.cpu0.dcache.overall_misses::total         9740                       # number of overall misses
system.cpu0.dcache.ReadReq_miss_latency::.switch_cpus0.data    345272500                       # number of ReadReq miss cycles
system.cpu0.dcache.ReadReq_miss_latency::total    345272500                       # number of ReadReq miss cycles
system.cpu0.dcache.WriteReq_miss_latency::.switch_cpus0.data    178235499                       # number of WriteReq miss cycles
system.cpu0.dcache.WriteReq_miss_latency::total    178235499                       # number of WriteReq miss cycles
system.cpu0.dcache.demand_miss_latency::.switch_cpus0.data    523507999                       # number of demand (read+write) miss cycles
system.cpu0.dcache.demand_miss_latency::total    523507999                       # number of demand (read+write) miss cycles
system.cpu0.dcache.overall_miss_latency::.switch_cpus0.data    523507999                       # number of overall miss cycles
system.cpu0.dcache.overall_miss_latency::total    523507999                       # number of overall miss cycles
system.cpu0.dcache.ReadReq_accesses::.cpu0.data            4                       # number of ReadReq accesses(hits+misses)
system.cpu0.dcache.ReadReq_accesses::.switch_cpus0.data       667735                       # number of ReadReq accesses(hits+misses)
system.cpu0.dcache.ReadReq_accesses::total       667739                       # number of ReadReq accesses(hits+misses)
system.cpu0.dcache.WriteReq_accesses::.switch_cpus0.data       111638                       # number of WriteReq accesses(hits+misses)
system.cpu0.dcache.WriteReq_accesses::total       111638                       # number of WriteReq accesses(hits+misses)
system.cpu0.dcache.SoftPFReq_accesses::.switch_cpus0.data          370                       # number of SoftPFReq accesses(hits+misses)
system.cpu0.dcache.SoftPFReq_accesses::total          370                       # number of SoftPFReq accesses(hits+misses)
system.cpu0.dcache.demand_accesses::.cpu0.data            4                       # number of demand (read+write) accesses
system.cpu0.dcache.demand_accesses::.switch_cpus0.data       779373                       # number of demand (read+write) accesses
system.cpu0.dcache.demand_accesses::total       779377                       # number of demand (read+write) accesses
system.cpu0.dcache.overall_accesses::.cpu0.data            4                       # number of overall (read+write) accesses
system.cpu0.dcache.overall_accesses::.switch_cpus0.data       779743                       # number of overall (read+write) accesses
system.cpu0.dcache.overall_accesses::total       779747                       # number of overall (read+write) accesses
system.cpu0.dcache.ReadReq_miss_rate::.cpu0.data     0.500000                       # miss rate for ReadReq accesses
system.cpu0.dcache.ReadReq_miss_rate::.switch_cpus0.data     0.009709                       # miss rate for ReadReq accesses
system.cpu0.dcache.ReadReq_miss_rate::total     0.009712                       # miss rate for ReadReq accesses
system.cpu0.dcache.WriteReq_miss_rate::.switch_cpus0.data     0.026129                       # miss rate for WriteReq accesses
system.cpu0.dcache.WriteReq_miss_rate::total     0.026129                       # miss rate for WriteReq accesses
system.cpu0.dcache.SoftPFReq_miss_rate::.switch_cpus0.data     0.913514                       # miss rate for SoftPFReq accesses
system.cpu0.dcache.SoftPFReq_miss_rate::total     0.913514                       # miss rate for SoftPFReq accesses
system.cpu0.dcache.demand_miss_rate::.cpu0.data     0.500000                       # miss rate for demand accesses
system.cpu0.dcache.demand_miss_rate::.switch_cpus0.data     0.012061                       # miss rate for demand accesses
system.cpu0.dcache.demand_miss_rate::total     0.012063                       # miss rate for demand accesses
system.cpu0.dcache.overall_miss_rate::.cpu0.data     0.500000                       # miss rate for overall accesses
system.cpu0.dcache.overall_miss_rate::.switch_cpus0.data     0.012489                       # miss rate for overall accesses
system.cpu0.dcache.overall_miss_rate::total     0.012491                       # miss rate for overall accesses
system.cpu0.dcache.ReadReq_avg_miss_latency::.switch_cpus0.data 53258.136665                       # average ReadReq miss latency
system.cpu0.dcache.ReadReq_avg_miss_latency::total 53241.711642                       # average ReadReq miss latency
system.cpu0.dcache.WriteReq_avg_miss_latency::.switch_cpus0.data 61102.330819                       # average WriteReq miss latency
system.cpu0.dcache.WriteReq_avg_miss_latency::total 61102.330819                       # average WriteReq miss latency
system.cpu0.dcache.demand_avg_miss_latency::.switch_cpus0.data 55692.340319                       # average overall miss latency
system.cpu0.dcache.demand_avg_miss_latency::total 55680.493406                       # average overall miss latency
system.cpu0.dcache.overall_avg_miss_latency::.switch_cpus0.data 53759.293387                       # average overall miss latency
system.cpu0.dcache.overall_avg_miss_latency::total 53748.254517                       # average overall miss latency
system.cpu0.dcache.blocked_cycles::no_mshrs         6477                       # number of cycles access was blocked
system.cpu0.dcache.blocked_cycles::no_targets           58                       # number of cycles access was blocked
system.cpu0.dcache.blocked::no_mshrs              135                       # number of cycles access was blocked
system.cpu0.dcache.blocked::no_targets              1                       # number of cycles access was blocked
system.cpu0.dcache.avg_blocked_cycles::no_mshrs    47.977778                       # average number of cycles each access was blocked
system.cpu0.dcache.avg_blocked_cycles::no_targets           58                       # average number of cycles each access was blocked
system.cpu0.dcache.writebacks::.writebacks         3569                       # number of writebacks
system.cpu0.dcache.writebacks::total             3569                       # number of writebacks
system.cpu0.dcache.ReadReq_mshr_hits::.switch_cpus0.data         3167                       # number of ReadReq MSHR hits
system.cpu0.dcache.ReadReq_mshr_hits::total         3167                       # number of ReadReq MSHR hits
system.cpu0.dcache.WriteReq_mshr_hits::.switch_cpus0.data           11                       # number of WriteReq MSHR hits
system.cpu0.dcache.WriteReq_mshr_hits::total           11                       # number of WriteReq MSHR hits
system.cpu0.dcache.demand_mshr_hits::.switch_cpus0.data         3178                       # number of demand (read+write) MSHR hits
system.cpu0.dcache.demand_mshr_hits::total         3178                       # number of demand (read+write) MSHR hits
system.cpu0.dcache.overall_mshr_hits::.switch_cpus0.data         3178                       # number of overall MSHR hits
system.cpu0.dcache.overall_mshr_hits::total         3178                       # number of overall MSHR hits
system.cpu0.dcache.ReadReq_mshr_misses::.switch_cpus0.data         3316                       # number of ReadReq MSHR misses
system.cpu0.dcache.ReadReq_mshr_misses::total         3316                       # number of ReadReq MSHR misses
system.cpu0.dcache.WriteReq_mshr_misses::.switch_cpus0.data         2906                       # number of WriteReq MSHR misses
system.cpu0.dcache.WriteReq_mshr_misses::total         2906                       # number of WriteReq MSHR misses
system.cpu0.dcache.SoftPFReq_mshr_misses::.switch_cpus0.data          338                       # number of SoftPFReq MSHR misses
system.cpu0.dcache.SoftPFReq_mshr_misses::total          338                       # number of SoftPFReq MSHR misses
system.cpu0.dcache.demand_mshr_misses::.switch_cpus0.data         6222                       # number of demand (read+write) MSHR misses
system.cpu0.dcache.demand_mshr_misses::total         6222                       # number of demand (read+write) MSHR misses
system.cpu0.dcache.overall_mshr_misses::.switch_cpus0.data         6560                       # number of overall MSHR misses
system.cpu0.dcache.overall_mshr_misses::total         6560                       # number of overall MSHR misses
system.cpu0.dcache.WriteReq_mshr_uncacheable::.switch_cpus0.data            4                       # number of WriteReq MSHR uncacheable
system.cpu0.dcache.WriteReq_mshr_uncacheable::total            4                       # number of WriteReq MSHR uncacheable
system.cpu0.dcache.overall_mshr_uncacheable_misses::.switch_cpus0.data            4                       # number of overall MSHR uncacheable misses
system.cpu0.dcache.overall_mshr_uncacheable_misses::total            4                       # number of overall MSHR uncacheable misses
system.cpu0.dcache.ReadReq_mshr_miss_latency::.switch_cpus0.data    177761000                       # number of ReadReq MSHR miss cycles
system.cpu0.dcache.ReadReq_mshr_miss_latency::total    177761000                       # number of ReadReq MSHR miss cycles
system.cpu0.dcache.WriteReq_mshr_miss_latency::.switch_cpus0.data    174467499                       # number of WriteReq MSHR miss cycles
system.cpu0.dcache.WriteReq_mshr_miss_latency::total    174467499                       # number of WriteReq MSHR miss cycles
system.cpu0.dcache.SoftPFReq_mshr_miss_latency::.switch_cpus0.data     26163000                       # number of SoftPFReq MSHR miss cycles
system.cpu0.dcache.SoftPFReq_mshr_miss_latency::total     26163000                       # number of SoftPFReq MSHR miss cycles
system.cpu0.dcache.demand_mshr_miss_latency::.switch_cpus0.data    352228499                       # number of demand (read+write) MSHR miss cycles
system.cpu0.dcache.demand_mshr_miss_latency::total    352228499                       # number of demand (read+write) MSHR miss cycles
system.cpu0.dcache.overall_mshr_miss_latency::.switch_cpus0.data    378391499                       # number of overall MSHR miss cycles
system.cpu0.dcache.overall_mshr_miss_latency::total    378391499                       # number of overall MSHR miss cycles
system.cpu0.dcache.ReadReq_mshr_miss_rate::.switch_cpus0.data     0.004966                       # mshr miss rate for ReadReq accesses
system.cpu0.dcache.ReadReq_mshr_miss_rate::total     0.004966                       # mshr miss rate for ReadReq accesses
system.cpu0.dcache.WriteReq_mshr_miss_rate::.switch_cpus0.data     0.026031                       # mshr miss rate for WriteReq accesses
system.cpu0.dcache.WriteReq_mshr_miss_rate::total     0.026031                       # mshr miss rate for WriteReq accesses
system.cpu0.dcache.SoftPFReq_mshr_miss_rate::.switch_cpus0.data     0.913514                       # mshr miss rate for SoftPFReq accesses
system.cpu0.dcache.SoftPFReq_mshr_miss_rate::total     0.913514                       # mshr miss rate for SoftPFReq accesses
system.cpu0.dcache.demand_mshr_miss_rate::.switch_cpus0.data     0.007983                       # mshr miss rate for demand accesses
system.cpu0.dcache.demand_mshr_miss_rate::total     0.007983                       # mshr miss rate for demand accesses
system.cpu0.dcache.overall_mshr_miss_rate::.switch_cpus0.data     0.008413                       # mshr miss rate for overall accesses
system.cpu0.dcache.overall_mshr_miss_rate::total     0.008413                       # mshr miss rate for overall accesses
system.cpu0.dcache.ReadReq_avg_mshr_miss_latency::.switch_cpus0.data 53607.056695                       # average ReadReq mshr miss latency
system.cpu0.dcache.ReadReq_avg_mshr_miss_latency::total 53607.056695                       # average ReadReq mshr miss latency
system.cpu0.dcache.WriteReq_avg_mshr_miss_latency::.switch_cpus0.data 60036.992085                       # average WriteReq mshr miss latency
system.cpu0.dcache.WriteReq_avg_mshr_miss_latency::total 60036.992085                       # average WriteReq mshr miss latency
system.cpu0.dcache.SoftPFReq_avg_mshr_miss_latency::.switch_cpus0.data 77405.325444                       # average SoftPFReq mshr miss latency
system.cpu0.dcache.SoftPFReq_avg_mshr_miss_latency::total 77405.325444                       # average SoftPFReq mshr miss latency
system.cpu0.dcache.demand_avg_mshr_miss_latency::.switch_cpus0.data 56610.173417                       # average overall mshr miss latency
system.cpu0.dcache.demand_avg_mshr_miss_latency::total 56610.173417                       # average overall mshr miss latency
system.cpu0.dcache.overall_avg_mshr_miss_latency::.switch_cpus0.data 57681.630945                       # average overall mshr miss latency
system.cpu0.dcache.overall_avg_mshr_miss_latency::total 57681.630945                       # average overall mshr miss latency
system.cpu0.dcache.replacements                  5936                       # number of replacements
system.cpu0.dtb_walker_cache.tags.pwrStateResidencyTicks::UNDEFINED 2366613740500                       # Cumulative time (in ticks) in various power states
system.cpu0.dtb_walker_cache.tags.tagsinuse    15.814816                       # Cycle average of tags in use
system.cpu0.dtb_walker_cache.tags.total_refs        12308                       # Total number of references to valid blocks.
system.cpu0.dtb_walker_cache.tags.sampled_refs         4495                       # Sample count of references to valid blocks.
system.cpu0.dtb_walker_cache.tags.avg_refs     2.738154                       # Average number of references to valid blocks.
system.cpu0.dtb_walker_cache.tags.warmup_cycle 2364991308500                       # Cycle when the warmup percentage was hit.
system.cpu0.dtb_walker_cache.tags.occ_blocks::.switch_cpus0.dtb.walker    15.814816                       # Average occupied blocks per requestor
system.cpu0.dtb_walker_cache.tags.occ_percent::.switch_cpus0.dtb.walker     0.988426                       # Average percentage of cache occupancy
system.cpu0.dtb_walker_cache.tags.occ_percent::total     0.988426                       # Average percentage of cache occupancy
system.cpu0.dtb_walker_cache.tags.occ_task_id_blocks::1024           16                       # Occupied blocks per task id
system.cpu0.dtb_walker_cache.tags.age_task_id_blocks_1024::0            2                       # Occupied blocks per task id
system.cpu0.dtb_walker_cache.tags.age_task_id_blocks_1024::2           14                       # Occupied blocks per task id
system.cpu0.dtb_walker_cache.tags.occ_task_id_percent::1024            1                       # Percentage of cache occupancy per task id
system.cpu0.dtb_walker_cache.tags.tag_accesses        29111                       # Number of tag accesses
system.cpu0.dtb_walker_cache.tags.data_accesses        29111                       # Number of data accesses
system.cpu0.dtb_walker_cache.pwrStateResidencyTicks::UNDEFINED 2366613740500                       # Cumulative time (in ticks) in various power states
system.cpu0.dtb_walker_cache.ReadReq_hits::.switch_cpus0.dtb.walker         7813                       # number of ReadReq hits
system.cpu0.dtb_walker_cache.ReadReq_hits::total         7813                       # number of ReadReq hits
system.cpu0.dtb_walker_cache.demand_hits::.switch_cpus0.dtb.walker         7813                       # number of demand (read+write) hits
system.cpu0.dtb_walker_cache.demand_hits::total         7813                       # number of demand (read+write) hits
system.cpu0.dtb_walker_cache.overall_hits::.switch_cpus0.dtb.walker         7813                       # number of overall hits
system.cpu0.dtb_walker_cache.overall_hits::total         7813                       # number of overall hits
system.cpu0.dtb_walker_cache.ReadReq_misses::.switch_cpus0.dtb.walker         4495                       # number of ReadReq misses
system.cpu0.dtb_walker_cache.ReadReq_misses::total         4495                       # number of ReadReq misses
system.cpu0.dtb_walker_cache.demand_misses::.switch_cpus0.dtb.walker         4495                       # number of demand (read+write) misses
system.cpu0.dtb_walker_cache.demand_misses::total         4495                       # number of demand (read+write) misses
system.cpu0.dtb_walker_cache.overall_misses::.switch_cpus0.dtb.walker         4495                       # number of overall misses
system.cpu0.dtb_walker_cache.overall_misses::total         4495                       # number of overall misses
system.cpu0.dtb_walker_cache.ReadReq_miss_latency::.switch_cpus0.dtb.walker     68818500                       # number of ReadReq miss cycles
system.cpu0.dtb_walker_cache.ReadReq_miss_latency::total     68818500                       # number of ReadReq miss cycles
system.cpu0.dtb_walker_cache.demand_miss_latency::.switch_cpus0.dtb.walker     68818500                       # number of demand (read+write) miss cycles
system.cpu0.dtb_walker_cache.demand_miss_latency::total     68818500                       # number of demand (read+write) miss cycles
system.cpu0.dtb_walker_cache.overall_miss_latency::.switch_cpus0.dtb.walker     68818500                       # number of overall miss cycles
system.cpu0.dtb_walker_cache.overall_miss_latency::total     68818500                       # number of overall miss cycles
system.cpu0.dtb_walker_cache.ReadReq_accesses::.switch_cpus0.dtb.walker        12308                       # number of ReadReq accesses(hits+misses)
system.cpu0.dtb_walker_cache.ReadReq_accesses::total        12308                       # number of ReadReq accesses(hits+misses)
system.cpu0.dtb_walker_cache.demand_accesses::.switch_cpus0.dtb.walker        12308                       # number of demand (read+write) accesses
system.cpu0.dtb_walker_cache.demand_accesses::total        12308                       # number of demand (read+write) accesses
system.cpu0.dtb_walker_cache.overall_accesses::.switch_cpus0.dtb.walker        12308                       # number of overall (read+write) accesses
[...]
system.switch_cpus1.commit.committed_per_cycle::3       102684      4.10%     91.57% # Number of insts commited each cycle
system.switch_cpus1.commit.committed_per_cycle::4        45899      1.83%     93.41% # Number of insts commited each cycle
system.switch_cpus1.commit.committed_per_cycle::5        29275      1.17%     94.57% # Number of insts commited each cycle
system.switch_cpus1.commit.committed_per_cycle::6        29385      1.17%     95.75% # Number of insts commited each cycle
system.switch_cpus1.commit.committed_per_cycle::7        12507      0.50%     96.25% # Number of insts commited each cycle
system.switch_cpus1.commit.committed_per_cycle::8        94057      3.75%    100.00% # Number of insts commited each cycle
system.switch_cpus1.commit.committed_per_cycle::overflows            0      0.00%    100.00% # Number of insts commited each cycle
system.switch_cpus1.commit.committed_per_cycle::min_value            0                       # Number of insts commited each cycle
system.switch_cpus1.commit.committed_per_cycle::max_value            8                       # Number of insts commited each cycle
system.switch_cpus1.commit.committed_per_cycle::total      2505522                       # Number of insts commited each cycle
system.switch_cpus1.commit.committedInsts      1037933                       # Number of instructions committed
system.switch_cpus1.commit.committedOps       1998457                       # Number of ops (including micro ops) committed
system.switch_cpus1.commit.swp_count                0                       # Number of s/w prefetches committed
system.switch_cpus1.commit.refs                460981                       # Number of memory references committed
system.switch_cpus1.commit.loads               292007                       # Number of loads committed
system.switch_cpus1.commit.membars              11476                       # Number of memory barriers committed
system.switch_cpus1.commit.branches            199727                       # Number of branches committed
system.switch_cpus1.commit.vec_insts                0                       # Number of committed Vector instructions.
system.switch_cpus1.commit.fp_insts             13284                       # Number of committed floating point instructions.
system.switch_cpus1.commit.int_insts          1938283                       # Number of committed integer instructions.
system.switch_cpus1.commit.function_calls        20086                       # Number of function calls committed.
system.switch_cpus1.commit.op_class_0::No_OpClass        10634      0.53%      0.53% # Class of committed instruction
system.switch_cpus1.commit.op_class_0::IntAlu      1513568     75.74%     76.27% # Class of committed instruction
system.switch_cpus1.commit.op_class_0::IntMult          481      0.02%     76.29% # Class of committed instruction
system.switch_cpus1.commit.op_class_0::IntDiv         3370      0.17%     76.46% # Class of committed instruction
system.switch_cpus1.commit.op_class_0::FloatAdd          139      0.01%     76.47% # Class of committed instruction
system.switch_cpus1.commit.op_class_0::FloatCmp            0      0.00%     76.47% # Class of committed instruction
system.switch_cpus1.commit.op_class_0::FloatCvt           48      0.00%     76.47% # Class of committed instruction
system.switch_cpus1.commit.op_class_0::FloatMult            0      0.00%     76.47% # Class of committed instruction
system.switch_cpus1.commit.op_class_0::FloatMultAcc            0      0.00%     76.47% # Class of committed instruction
system.switch_cpus1.commit.op_class_0::FloatDiv            0      0.00%     76.47% # Class of committed instruction
system.switch_cpus1.commit.op_class_0::FloatMisc            0      0.00%     76.47% # Class of committed instruction
system.switch_cpus1.commit.op_class_0::FloatSqrt            0      0.00%     76.47% # Class of committed instruction
system.switch_cpus1.commit.op_class_0::SimdAdd         1354      0.07%     76.54% # Class of committed instruction
system.switch_cpus1.commit.op_class_0::SimdAddAcc            0      0.00%     76.54% # Class of committed instruction
system.switch_cpus1.commit.op_class_0::SimdAlu         2056      0.10%     76.64% # Class of committed instruction
system.switch_cpus1.commit.op_class_0::SimdCmp            0      0.00%     76.64% # Class of committed instruction
system.switch_cpus1.commit.op_class_0::SimdCvt         2962      0.15%     76.79% # Class of committed instruction
system.switch_cpus1.commit.op_class_0::SimdMisc         1862      0.09%     76.88% # Class of committed instruction
system.switch_cpus1.commit.op_class_0::SimdMult            0      0.00%     76.88% # Class of committed instruction
system.switch_cpus1.commit.op_class_0::SimdMultAcc            0      0.00%     76.88% # Class of committed instruction
system.switch_cpus1.commit.op_class_0::SimdShift         1002      0.05%     76.93% # Class of committed instruction
system.switch_cpus1.commit.op_class_0::SimdShiftAcc            0      0.00%     76.93% # Class of committed instruction
system.switch_cpus1.commit.op_class_0::SimdSqrt            0      0.00%     76.93% # Class of committed instruction
system.switch_cpus1.commit.op_class_0::SimdFloatAdd            0      0.00%     76.93% # Class of committed instruction
system.switch_cpus1.commit.op_class_0::SimdFloatAlu            0      0.00%     76.93% # Class of committed instruction
system.switch_cpus1.commit.op_class_0::SimdFloatCmp            0      0.00%     76.93% # Class of committed instruction
system.switch_cpus1.commit.op_class_0::SimdFloatCvt            0      0.00%     76.93% # Class of committed instruction
system.switch_cpus1.commit.op_class_0::SimdFloatDiv            0      0.00%     76.93% # Class of committed instruction
system.switch_cpus1.commit.op_class_0::SimdFloatMisc            0      0.00%     76.93% # Class of committed instruction
system.switch_cpus1.commit.op_class_0::SimdFloatMult            0      0.00%     76.93% # Class of committed instruction
system.switch_cpus1.commit.op_class_0::SimdFloatMultAcc            0      0.00%     76.93% # Class of committed instruction
system.switch_cpus1.commit.op_class_0::SimdFloatSqrt            0      0.00%     76.93% # Class of committed instruction
system.switch_cpus1.commit.op_class_0::SimdAes            0      0.00%     76.93% # Class of committed instruction
system.switch_cpus1.commit.op_class_0::SimdAesMix            0      0.00%     76.93% # Class of committed instruction
system.switch_cpus1.commit.op_class_0::SimdSha1Hash            0      0.00%     76.93% # Class of committed instruction
system.switch_cpus1.commit.op_class_0::SimdSha1Hash2            0      0.00%     76.93% # Class of committed instruction
system.switch_cpus1.commit.op_class_0::SimdSha256Hash            0      0.00%     76.93% # Class of committed instruction
system.switch_cpus1.commit.op_class_0::SimdSha256Hash2            0      0.00%     76.93% # Class of committed instruction
system.switch_cpus1.commit.op_class_0::SimdShaSigma2            0      0.00%     76.93% # Class of committed instruction
system.switch_cpus1.commit.op_class_0::SimdShaSigma3            0      0.00%     76.93% # Class of committed instruction
system.switch_cpus1.commit.op_class_0::MemRead       288817     14.45%     91.39% # Class of committed instruction
system.switch_cpus1.commit.op_class_0::MemWrite       168494      8.43%     99.82% # Class of committed instruction
system.switch_cpus1.commit.op_class_0::FloatMemRead         3190      0.16%     99.98% # Class of committed instruction
system.switch_cpus1.commit.op_class_0::FloatMemWrite          480      0.02%    100.00% # Class of committed instruction
system.switch_cpus1.commit.op_class_0::IprAccess            0      0.00%    100.00% # Class of committed instruction
system.switch_cpus1.commit.op_class_0::InstPrefetch            0      0.00%    100.00% # Class of committed instruction
system.switch_cpus1.commit.op_class_0::total      1998457                       # Class of committed instruction
system.switch_cpus1.commit.bw_lim_events        94057                       # number cycles where commit BW limit reached
system.switch_cpus1.rob.rob_reads             6121764                       # The number of ROB reads
system.switch_cpus1.rob.rob_writes            7697812                       # The number of ROB writes
system.switch_cpus1.timesIdled                   8441                       # Number of times that the entire CPU went into an idle state and unscheduled itself
system.switch_cpus1.idleCycles                 469590                       # Total number of cycles that the CPU has spent unscheduled due to idling
system.switch_cpus1.committedInsts            1037933                       # Number of Instructions Simulated
system.switch_cpus1.committedOps              1998457                       # Number of Ops (including micro ops) Simulated
system.switch_cpus1.cpi                      3.127224                       # CPI: Cycles Per Instruction
system.switch_cpus1.cpi_total                3.127224                       # CPI: Total CPI of All Threads
system.switch_cpus1.ipc                      0.319772                       # IPC: Instructions Per Cycle
system.switch_cpus1.ipc_total                0.319772                       # IPC: Total IPC of All Threads
system.switch_cpus1.int_regfile_reads         4228581                       # number of integer regfile reads
system.switch_cpus1.int_regfile_writes        2336405                       # number of integer regfile writes
system.switch_cpus1.fp_regfile_reads            37352                       # number of floating regfile reads
system.switch_cpus1.fp_regfile_writes           21515                       # number of floating regfile writes
system.switch_cpus1.cc_regfile_reads          1376529                       # number of cc regfile reads
system.switch_cpus1.cc_regfile_writes          748306                       # number of cc regfile writes
system.switch_cpus1.misc_regfile_reads        1261327                       # number of misc regfile reads
system.switch_cpus1.misc_regfile_writes          5070                       # number of misc regfile writes
system.tol2bus.snoop_filter.tot_requests       123413                       # Total number of requests made to the snoop filter.
system.tol2bus.snoop_filter.hit_single_requests        59683                       # Number of requests hitting in the snoop filter with a single holder of the requested data.
system.tol2bus.snoop_filter.hit_multi_requests        10442                       # Number of requests hitting in the snoop filter with multiple (>1) holders of the requested data.
system.tol2bus.snoop_filter.tot_snoops              0                       # Total number of snoops made to the snoop filter.
system.tol2bus.snoop_filter.hit_single_snoops            0                       # Number of snoops hitting in the snoop filter with a single holder of the requested data.
system.tol2bus.snoop_filter.hit_multi_snoops            0                       # Number of snoops hitting in the snoop filter with multiple (>1) holders of the requested data.
system.tol2bus.pwrStateResidencyTicks::UNDEFINED 2366613740500                       # Cumulative time (in ticks) in various power states
system.tol2bus.trans_dist::ReadReq                 73                       # Transaction distribution
system.tol2bus.trans_dist::ReadResp             55978                       # Transaction distribution
system.tol2bus.trans_dist::WriteReq                35                       # Transaction distribution
system.tol2bus.trans_dist::WriteResp               35                       # Transaction distribution
system.tol2bus.trans_dist::WritebackDirty        14282                       # Transaction distribution
system.tol2bus.trans_dist::WritebackClean        22472                       # Transaction distribution
system.tol2bus.trans_dist::CleanEvict           23754                       # Transaction distribution
system.tol2bus.trans_dist::UpgradeReq             193                       # Transaction distribution
system.tol2bus.trans_dist::UpgradeResp            193                       # Transaction distribution
system.tol2bus.trans_dist::ReadExReq             6851                       # Transaction distribution
system.tol2bus.trans_dist::ReadExResp            6850                       # Transaction distribution
system.tol2bus.trans_dist::ReadCleanReq         23496                       # Transaction distribution
system.tol2bus.trans_dist::ReadSharedReq        32409                       # Transaction distribution
system.tol2bus.pkt_count_system.cpu0.icache.mem_side::system.l2.cpu_side        16114                       # Packet count per connected master and slave (bytes)
system.tol2bus.pkt_count_system.cpu0.dcache.mem_side::system.l2.cpu_side        18988                       # Packet count per connected master and slave (bytes)
system.tol2bus.pkt_count_system.cpu0.itb_walker_cache.mem_side::system.l2.cpu_side         2612                       # Packet count per connected master and slave (bytes)
system.tol2bus.pkt_count_system.cpu0.dtb_walker_cache.mem_side::system.l2.cpu_side        13440                       # Packet count per connected master and slave (bytes)
system.tol2bus.pkt_count_system.cpu1.icache.mem_side::system.l2.cpu_side        53350                       # Packet count per connected master and slave (bytes)
system.tol2bus.pkt_count_system.cpu1.dcache.mem_side::system.l2.cpu_side        49401                       # Packet count per connected master and slave (bytes)
system.tol2bus.pkt_count_system.cpu1.itb_walker_cache.mem_side::system.l2.cpu_side         3004                       # Packet count per connected master and slave (bytes)
system.tol2bus.pkt_count_system.cpu1.dtb_walker_cache.mem_side::system.l2.cpu_side        28296                       # Packet count per connected master and slave (bytes)
system.tol2bus.pkt_count::total                185205                       # Packet count per connected master and slave (bytes)
system.tol2bus.pkt_size_system.cpu0.icache.mem_side::system.l2.cpu_side       676608                       # Cumulative packet size per connected master and slave (bytes)
system.tol2bus.pkt_size_system.cpu0.dcache.mem_side::system.l2.cpu_side       640653                       # Cumulative packet size per connected master and slave (bytes)
system.tol2bus.pkt_size_system.cpu0.itb_walker_cache.mem_side::system.l2.cpu_side        56064                       # Cumulative packet size per connected master and slave (bytes)
system.tol2bus.pkt_size_system.cpu0.dtb_walker_cache.mem_side::system.l2.cpu_side       287296                       # Cumulative packet size per connected master and slave (bytes)
system.tol2bus.pkt_size_system.cpu1.icache.mem_side::system.l2.cpu_side      2265344                       # Cumulative packet size per connected master and slave (bytes)
system.tol2bus.pkt_size_system.cpu1.dcache.mem_side::system.l2.cpu_side      1618371                       # Cumulative packet size per connected master and slave (bytes)
system.tol2bus.pkt_size_system.cpu1.itb_walker_cache.mem_side::system.l2.cpu_side        66368                       # Cumulative packet size per connected master and slave (bytes)
system.tol2bus.pkt_size_system.cpu1.dtb_walker_cache.mem_side::system.l2.cpu_side       675008                       # Cumulative packet size per connected master and slave (bytes)
system.tol2bus.pkt_size::total                6285712                       # Cumulative packet size per connected master and slave (bytes)
system.tol2bus.snoops                            1416                       # Total snoops (count)
system.tol2bus.snoopTraffic                     83008                       # Total snoop traffic (bytes)
system.tol2bus.snoop_fanout::samples            63101                       # Request fanout histogram
system.tol2bus.snoop_fanout::mean            0.168634                       # Request fanout histogram
system.tol2bus.snoop_fanout::stdev           0.417041                       # Request fanout histogram
system.tol2bus.snoop_fanout::underflows             0      0.00%      0.00% # Request fanout histogram
system.tol2bus.snoop_fanout::0                  53469     84.74%     84.74% # Request fanout histogram
system.tol2bus.snoop_fanout::1                   8678     13.75%     98.49% # Request fanout histogram
system.tol2bus.snoop_fanout::2                    899      1.42%     99.91% # Request fanout histogram
system.tol2bus.snoop_fanout::3                     55      0.09%    100.00% # Request fanout histogram
system.tol2bus.snoop_fanout::4                      0      0.00%    100.00% # Request fanout histogram
system.tol2bus.snoop_fanout::5                      0      0.00%    100.00% # Request fanout histogram
system.tol2bus.snoop_fanout::6                      0      0.00%    100.00% # Request fanout histogram
system.tol2bus.snoop_fanout::7                      0      0.00%    100.00% # Request fanout histogram
system.tol2bus.snoop_fanout::8                      0      0.00%    100.00% # Request fanout histogram
system.tol2bus.snoop_fanout::overflows              0      0.00%    100.00% # Request fanout histogram
system.tol2bus.snoop_fanout::min_value              0                       # Request fanout histogram
system.tol2bus.snoop_fanout::max_value              3                       # Request fanout histogram
system.tol2bus.snoop_fanout::total              63101                       # Request fanout histogram
system.tol2bus.reqLayer0.occupancy           98520499                       # Layer occupancy (ticks)
system.tol2bus.reqLayer0.utilization              6.1                       # Layer utilization (%)
system.tol2bus.respLayer0.occupancy           8328962                       # Layer occupancy (ticks)
system.tol2bus.respLayer0.utilization             0.5                       # Layer utilization (%)
system.tol2bus.respLayer1.occupancy           9800443                       # Layer occupancy (ticks)
system.tol2bus.respLayer1.utilization             0.6                       # Layer utilization (%)
system.tol2bus.respLayer2.occupancy           1314000                       # Layer occupancy (ticks)
system.tol2bus.respLayer2.utilization             0.1                       # Layer utilization (%)
system.tol2bus.respLayer3.occupancy           6749985                       # Layer occupancy (ticks)
system.tol2bus.respLayer3.utilization             0.4                       # Layer utilization (%)
system.tol2bus.respLayer4.occupancy          26958433                       # Layer occupancy (ticks)
system.tol2bus.respLayer4.utilization             1.7                       # Layer utilization (%)
system.tol2bus.respLayer5.occupancy          25020945                       # Layer occupancy (ticks)
system.tol2bus.respLayer5.utilization             1.5                       # Layer utilization (%)
system.tol2bus.respLayer6.occupancy           1644499                       # Layer occupancy (ticks)
system.tol2bus.respLayer6.utilization             0.1                       # Layer utilization (%)
system.tol2bus.respLayer7.occupancy          14615976                       # Layer occupancy (ticks)
system.tol2bus.respLayer7.utilization             0.9                       # Layer utilization (%)
system.switch_cpus0.kern.inst.arm                   0                       # number of arm instructions executed
system.switch_cpus0.kern.inst.quiesce               0                       # number of quiesce instructions executed
system.switch_cpus1.kern.inst.arm                   0                       # number of arm instructions executed
system.switch_cpus1.kern.inst.quiesce               0                       # number of quiesce instructions executed

---------- End Simulation Statistics   ----------
