
---------- Begin Simulation Statistics ----------
sim_seconds                                  0.059286                       # Number of seconds simulated
sim_ticks                                 59285583000                       # Number of ticks simulated
final_tick                               2424276388000                       # Number of ticks from beginning of simulation (restored from checkpoints and never reset)
sim_freq                                 1000000000000                       # Frequency of simulated ticks
host_inst_rate                                  98102                       # Simulator instruction rate (inst/s)
host_op_rate                                   249080                       # Simulator op (including micro ops) rate (op/s)
host_tick_rate                               52439541                       # Simulator tick rate (ticks/s)
host_mem_usage                                3586492                       # Number of bytes of host memory used
host_seconds                                  1130.55                       # Real time elapsed on the host
sim_insts                                   110909211                       # Number of instructions simulated
sim_ops                                     281597207                       # Number of ops (including micro ops) simulated
system.voltage_domain.voltage                       1                       # Voltage in Volts
system.clk_domain.clock                          1000                       # Clock period in ticks
system.mem_ctrls0.pwrStateResidencyTicks::UNDEFINED 2424276388000                       # Cumulative time (in ticks) in various power states
system.mem_ctrls0.bytes_read::.cpu0.inst           64                       # Number of bytes read from this memory
system.mem_ctrls0.bytes_read::.cpu0.data           16                       # Number of bytes read from this memory
system.mem_ctrls0.bytes_read::.cpu1.inst           72                       # Number of bytes read from this memory
system.mem_ctrls0.bytes_read::.cpu1.data           24                       # Number of bytes read from this memory
system.mem_ctrls0.bytes_read::.ruby.dir_cntrl0      1368896                       # Number of bytes read from this memory
system.mem_ctrls0.bytes_read::total           1369072                       # Number of bytes read from this memory
system.mem_ctrls0.bytes_inst_read::.cpu0.inst           64                       # Number of instructions bytes read from this memory
system.mem_ctrls0.bytes_inst_read::.cpu1.inst           72                       # Number of instructions bytes read from this memory
system.mem_ctrls0.bytes_inst_read::total          136                       # Number of instructions bytes read from this memory
system.mem_ctrls0.bytes_written::.cpu1.data           16                       # Number of bytes written to this memory
system.mem_ctrls0.bytes_written::.ruby.dir_cntrl0         3072                       # Number of bytes written to this memory
system.mem_ctrls0.bytes_written::total           3088                       # Number of bytes written to this memory
system.mem_ctrls0.num_reads::.cpu0.inst             8                       # Number of read requests responded to by this memory
system.mem_ctrls0.num_reads::.cpu0.data             2                       # Number of read requests responded to by this memory
system.mem_ctrls0.num_reads::.cpu1.inst             9                       # Number of read requests responded to by this memory
system.mem_ctrls0.num_reads::.cpu1.data             3                       # Number of read requests responded to by this memory
system.mem_ctrls0.num_reads::.ruby.dir_cntrl0        21389                       # Number of read requests responded to by this memory
system.mem_ctrls0.num_reads::total              21411                       # Number of read requests responded to by this memory
system.mem_ctrls0.num_writes::.cpu1.data            2                       # Number of write requests responded to by this memory
system.mem_ctrls0.num_writes::.ruby.dir_cntrl0           48                       # Number of write requests responded to by this memory
system.mem_ctrls0.num_writes::total                50                       # Number of write requests responded to by this memory
system.mem_ctrls0.bw_read::.cpu0.inst            1080                       # Total read bandwidth from this memory (bytes/s)
system.mem_ctrls0.bw_read::.cpu0.data             270                       # Total read bandwidth from this memory (bytes/s)
system.mem_ctrls0.bw_read::.cpu1.inst            1214                       # Total read bandwidth from this memory (bytes/s)
system.mem_ctrls0.bw_read::.cpu1.data             405                       # Total read bandwidth from this memory (bytes/s)
system.mem_ctrls0.bw_read::.ruby.dir_cntrl0     23089863                       # Total read bandwidth from this memory (bytes/s)
system.mem_ctrls0.bw_read::total             23092832                       # Total read bandwidth from this memory (bytes/s)
system.mem_ctrls0.bw_inst_read::.cpu0.inst         1080                       # Instruction read bandwidth from this memory (bytes/s)
system.mem_ctrls0.bw_inst_read::.cpu1.inst         1214                       # Instruction read bandwidth from this memory (bytes/s)
system.mem_ctrls0.bw_inst_read::total            2294                       # Instruction read bandwidth from this memory (bytes/s)
system.mem_ctrls0.bw_write::.cpu1.data            270                       # Write bandwidth from this memory (bytes/s)
system.mem_ctrls0.bw_write::.ruby.dir_cntrl0        51817                       # Write bandwidth from this memory (bytes/s)
system.mem_ctrls0.bw_write::total               52087                       # Write bandwidth from this memory (bytes/s)
system.mem_ctrls0.bw_total::.cpu0.inst           1080                       # Total bandwidth to/from this memory (bytes/s)
system.mem_ctrls0.bw_total::.cpu0.data            270                       # Total bandwidth to/from this memory (bytes/s)
system.mem_ctrls0.bw_total::.cpu1.inst           1214                       # Total bandwidth to/from this memory (bytes/s)
system.mem_ctrls0.bw_total::.cpu1.data            675                       # Total bandwidth to/from this memory (bytes/s)
system.mem_ctrls0.bw_total::.ruby.dir_cntrl0     23141680                       # Total bandwidth to/from this memory (bytes/s)
system.mem_ctrls0.bw_total::total            23144919                       # Total bandwidth to/from this memory (bytes/s)
system.mem_ctrls0.avgPriority_.ruby.dir_cntrl0::samples     21383.00                       # Average QoS priority value for accepted requests
system.mem_ctrls0.priorityMinLatency     0.000000018750                       # per QoS priority minimum request to response latency (s)
system.mem_ctrls0.priorityMaxLatency     0.000001099750                       # per QoS priority maximum request to response latency (s)
system.mem_ctrls0.numReadWriteTurnArounds            0                       # Number of turnarounds from READ to WRITE
system.mem_ctrls0.numWriteReadTurnArounds            0                       # Number of turnarounds from WRITE to READ
system.mem_ctrls0.numStayReadState              43401                       # Number of times bus staying in READ state
system.mem_ctrls0.numStayWriteState                 0                       # Number of times bus staying in WRITE state
system.mem_ctrls0.readReqs                      21389                       # Number of read requests accepted
system.mem_ctrls0.writeReqs                        48                       # Number of write requests accepted
system.mem_ctrls0.readBursts                    21389                       # Number of DRAM read bursts, including those serviced by the write queue
system.mem_ctrls0.writeBursts                      48                       # Number of DRAM write bursts, including those merged in the write queue
system.mem_ctrls0.bytesReadDRAM               1367168                       # Total number of bytes read from DRAM
system.mem_ctrls0.bytesReadWrQ                   1728                       # Total number of bytes read from write queue
system.mem_ctrls0.bytesWritten                      0                       # Total number of bytes written to DRAM
system.mem_ctrls0.bytesReadSys                1368896                       # Total read bytes from the system interface side
system.mem_ctrls0.bytesWrittenSys                3072                       # Total written bytes from the system interface side
system.mem_ctrls0.servicedByWrQ                    27                       # Number of DRAM read bursts serviced by the write queue
system.mem_ctrls0.mergedWrBursts                   27                       # Number of DRAM write bursts merged with an existing one
system.mem_ctrls0.neitherReadNorWriteReqs            0                       # Number of requests that are neither read nor write
system.mem_ctrls0.perBankRdBursts::0             1388                       # Per bank write bursts
system.mem_ctrls0.perBankRdBursts::1             1547                       # Per bank write bursts
system.mem_ctrls0.perBankRdBursts::2             1219                       # Per bank write bursts
system.mem_ctrls0.perBankRdBursts::3             1445                       # Per bank write bursts
system.mem_ctrls0.perBankRdBursts::4             1483                       # Per bank write bursts
system.mem_ctrls0.perBankRdBursts::5             1465                       # Per bank write bursts
system.mem_ctrls0.perBankRdBursts::6             1383                       # Per bank write bursts
system.mem_ctrls0.perBankRdBursts::7             1384                       # Per bank write bursts
system.mem_ctrls0.perBankRdBursts::8             1355                       # Per bank write bursts
system.mem_ctrls0.perBankRdBursts::9             1355                       # Per bank write bursts
system.mem_ctrls0.perBankRdBursts::10            1185                       # Per bank write bursts
system.mem_ctrls0.perBankRdBursts::11             991                       # Per bank write bursts
system.mem_ctrls0.perBankRdBursts::12            1587                       # Per bank write bursts
system.mem_ctrls0.perBankRdBursts::13            1315                       # Per bank write bursts
system.mem_ctrls0.perBankRdBursts::14            1266                       # Per bank write bursts
system.mem_ctrls0.perBankRdBursts::15             994                       # Per bank write bursts
system.mem_ctrls0.perBankWrBursts::0                0                       # Per bank write bursts
system.mem_ctrls0.perBankWrBursts::1                0                       # Per bank write bursts
system.mem_ctrls0.perBankWrBursts::2                0                       # Per bank write bursts
system.mem_ctrls0.perBankWrBursts::3                0                       # Per bank write bursts
system.mem_ctrls0.perBankWrBursts::4                0                       # Per bank write bursts
system.mem_ctrls0.perBankWrBursts::5                0                       # Per bank write bursts
system.mem_ctrls0.perBankWrBursts::6                0                       # Per bank write bursts
system.mem_ctrls0.perBankWrBursts::7                0                       # Per bank write bursts
system.mem_ctrls0.perBankWrBursts::8                0                       # Per bank write bursts
system.mem_ctrls0.perBankWrBursts::9                0                       # Per bank write bursts
system.mem_ctrls0.perBankWrBursts::10               0                       # Per bank write bursts
system.mem_ctrls0.perBankWrBursts::11               0                       # Per bank write bursts
system.mem_ctrls0.perBankWrBursts::12               0                       # Per bank write bursts
system.mem_ctrls0.perBankWrBursts::13               0                       # Per bank write bursts
system.mem_ctrls0.perBankWrBursts::14               0                       # Per bank write bursts
system.mem_ctrls0.perBankWrBursts::15               0                       # Per bank write bursts
system.mem_ctrls0.numRdRetry                        0                       # Number of times read queue was full causing retry
system.mem_ctrls0.numWrRetry                        0                       # Number of times write queue was full causing retry
system.mem_ctrls0.totGap                  51350779000                       # Total gap between requests
system.mem_ctrls0.readPktSize::0                    0                       # Read request sizes (log2)
system.mem_ctrls0.readPktSize::1                    0                       # Read request sizes (log2)
system.mem_ctrls0.readPktSize::2                    0                       # Read request sizes (log2)
system.mem_ctrls0.readPktSize::3                    0                       # Read request sizes (log2)
system.mem_ctrls0.readPktSize::4                    0                       # Read request sizes (log2)
system.mem_ctrls0.readPktSize::5                    0                       # Read request sizes (log2)
system.mem_ctrls0.readPktSize::6                21389                       # Read request sizes (log2)
system.mem_ctrls0.writePktSize::0                   0                       # Write request sizes (log2)
system.mem_ctrls0.writePktSize::1                   0                       # Write request sizes (log2)
system.mem_ctrls0.writePktSize::2                   0                       # Write request sizes (log2)
system.mem_ctrls0.writePktSize::3                   0                       # Write request sizes (log2)
system.mem_ctrls0.writePktSize::4                   0                       # Write request sizes (log2)
system.mem_ctrls0.writePktSize::5                   0                       # Write request sizes (log2)
system.mem_ctrls0.writePktSize::6                  48                       # Write request sizes (log2)
system.mem_ctrls0.rdQLenPdf::0                  17242                       # What read queue length does an incoming req see
system.mem_ctrls0.rdQLenPdf::1                   3318                       # What read queue length does an incoming req see
system.mem_ctrls0.rdQLenPdf::2                    649                       # What read queue length does an incoming req see
system.mem_ctrls0.rdQLenPdf::3                    113                       # What read queue length does an incoming req see
system.mem_ctrls0.rdQLenPdf::4                     30                       # What read queue length does an incoming req see
system.mem_ctrls0.rdQLenPdf::5                      6                       # What read queue length does an incoming req see
system.mem_ctrls0.rdQLenPdf::6                      4                       # What read queue length does an incoming req see
system.mem_ctrls0.rdQLenPdf::7                      0                       # What read queue length does an incoming req see
system.mem_ctrls0.rdQLenPdf::8                      0                       # What read queue length does an incoming req see
system.mem_ctrls0.rdQLenPdf::9                      0                       # What read queue length does an incoming req see
system.mem_ctrls0.rdQLenPdf::10                     0                       # What read queue length does an incoming req see
system.mem_ctrls0.rdQLenPdf::11                     0                       # What read queue length does an incoming req see
system.mem_ctrls0.rdQLenPdf::12                     0                       # What read queue length does an incoming req see
system.mem_ctrls0.rdQLenPdf::13                     0                       # What read queue length does an incoming req see
system.mem_ctrls0.rdQLenPdf::14                     0                       # What read queue length does an incoming req see
system.mem_ctrls0.rdQLenPdf::15                     0                       # What read queue length does an incoming req see
system.mem_ctrls0.rdQLenPdf::16                     0                       # What read queue length does an incoming req see
system.mem_ctrls0.rdQLenPdf::17                     0                       # What read queue length does an incoming req see
system.mem_ctrls0.rdQLenPdf::18                     0                       # What read queue length does an incoming req see
system.mem_ctrls0.rdQLenPdf::19                     0                       # What read queue length does an incoming req see
system.mem_ctrls0.rdQLenPdf::20                     0                       # What read queue length does an incoming req see
system.mem_ctrls0.rdQLenPdf::21                     0                       # What read queue length does an incoming req see
system.mem_ctrls0.rdQLenPdf::22                     0                       # What read queue length does an incoming req see
system.mem_ctrls0.rdQLenPdf::23                     0                       # What read queue length does an incoming req see
system.mem_ctrls0.rdQLenPdf::24                     0                       # What read queue length does an incoming req see
system.mem_ctrls0.rdQLenPdf::25                     0                       # What read queue length does an incoming req see
system.mem_ctrls0.rdQLenPdf::26                     0                       # What read queue length does an incoming req see
system.mem_ctrls0.rdQLenPdf::27                     0                       # What read queue length does an incoming req see
system.mem_ctrls0.rdQLenPdf::28                     0                       # What read queue length does an incoming req see
system.mem_ctrls0.rdQLenPdf::29                     0                       # What read queue length does an incoming req see
system.mem_ctrls0.rdQLenPdf::30                     0                       # What read queue length does an incoming req see
system.mem_ctrls0.rdQLenPdf::31                     0                       # What read queue length does an incoming req see
system.mem_ctrls0.wrQLenPdf::0                      1                       # What write queue length does an incoming req see
system.mem_ctrls0.wrQLenPdf::1                      1                       # What write queue length does an incoming req see
system.mem_ctrls0.wrQLenPdf::2                      1                       # What write queue length does an incoming req see
system.mem_ctrls0.wrQLenPdf::3                      1                       # What write queue length does an incoming req see
system.mem_ctrls0.wrQLenPdf::4                      1                       # What write queue length does an incoming req see
system.mem_ctrls0.wrQLenPdf::5                      1                       # What write queue length does an incoming req see
system.mem_ctrls0.wrQLenPdf::6                      1                       # What write queue length does an incoming req see
system.mem_ctrls0.wrQLenPdf::7                      1                       # What write queue length does an incoming req see
system.mem_ctrls0.wrQLenPdf::8                      1                       # What write queue length does an incoming req see
system.mem_ctrls0.wrQLenPdf::9                      1                       # What write queue length does an incoming req see
system.mem_ctrls0.wrQLenPdf::10                     1                       # What write queue length does an incoming req see
system.mem_ctrls0.wrQLenPdf::11                     1                       # What write queue length does an incoming req see
system.mem_ctrls0.wrQLenPdf::12                     1                       # What write queue length does an incoming req see
system.mem_ctrls0.wrQLenPdf::13                     1                       # What write queue length does an incoming req see
system.mem_ctrls0.wrQLenPdf::14                     1                       # What write queue length does an incoming req see
system.mem_ctrls0.wrQLenPdf::15                     1                       # What write queue length does an incoming req see
system.mem_ctrls0.wrQLenPdf::16                     1                       # What write queue length does an incoming req see
system.mem_ctrls0.wrQLenPdf::17                     1                       # What write queue length does an incoming req see
system.mem_ctrls0.wrQLenPdf::18                     1                       # What write queue length does an incoming req see
system.mem_ctrls0.wrQLenPdf::19                     1                       # What write queue length does an incoming req see
system.mem_ctrls0.wrQLenPdf::20                     1                       # What write queue length does an incoming req see
system.mem_ctrls0.wrQLenPdf::21                     0                       # What write queue length does an incoming req see
system.mem_ctrls0.wrQLenPdf::22                     0                       # What write queue length does an incoming req see
system.mem_ctrls0.wrQLenPdf::23                     0                       # What write queue length does an incoming req see
system.mem_ctrls0.wrQLenPdf::24                     0                       # What write queue length does an incoming req see
system.mem_ctrls0.wrQLenPdf::25                     0                       # What write queue length does an incoming req see
system.mem_ctrls0.wrQLenPdf::26                     0                       # What write queue length does an incoming req see
system.mem_ctrls0.wrQLenPdf::27                     0                       # What write queue length does an incoming req see
system.mem_ctrls0.wrQLenPdf::28                     0                       # What write queue length does an incoming req see
system.mem_ctrls0.wrQLenPdf::29                     0                       # What write queue length does an incoming req see
system.mem_ctrls0.wrQLenPdf::30                     0                       # What write queue length does an incoming req see
system.mem_ctrls0.wrQLenPdf::31                     0                       # What write queue length does an incoming req see
system.mem_ctrls0.wrQLenPdf::32                     0                       # What write queue length does an incoming req see
system.mem_ctrls0.wrQLenPdf::33                     0                       # What write queue length does an incoming req see
system.mem_ctrls0.wrQLenPdf::34                     0                       # What write queue length does an incoming req see
system.mem_ctrls0.wrQLenPdf::35                     0                       # What write queue length does an incoming req see
system.mem_ctrls0.wrQLenPdf::36                     0                       # What write queue length does an incoming req see
system.mem_ctrls0.wrQLenPdf::37                     0                       # What write queue length does an incoming req see
system.mem_ctrls0.wrQLenPdf::38                     0                       # What write queue length does an incoming req see
system.mem_ctrls0.wrQLenPdf::39                     0                       # What write queue length does an incoming req see
system.mem_ctrls0.wrQLenPdf::40                     0                       # What write queue length does an incoming req see
system.mem_ctrls0.wrQLenPdf::41                     0                       # What write queue length does an incoming req see
system.mem_ctrls0.wrQLenPdf::42                     0                       # What write queue length does an incoming req see
system.mem_ctrls0.wrQLenPdf::43                     0                       # What write queue length does an incoming req see
system.mem_ctrls0.wrQLenPdf::44                     0                       # What write queue length does an incoming req see
system.mem_ctrls0.wrQLenPdf::45                     0                       # What write queue length does an incoming req see
system.mem_ctrls0.wrQLenPdf::46                     0                       # What write queue length does an incoming req see
system.mem_ctrls0.wrQLenPdf::47                     0                       # What write queue length does an incoming req see
system.mem_ctrls0.wrQLenPdf::48                     0                       # What write queue length does an incoming req see
system.mem_ctrls0.wrQLenPdf::49                     0                       # What write queue length does an incoming req see
system.mem_ctrls0.wrQLenPdf::50                     0                       # What write queue length does an incoming req see
system.mem_ctrls0.wrQLenPdf::51                     0                       # What write queue length does an incoming req see
system.mem_ctrls0.wrQLenPdf::52                     0                       # What write queue length does an incoming req see
system.mem_ctrls0.wrQLenPdf::53                     0                       # What write queue length does an incoming req see
system.mem_ctrls0.wrQLenPdf::54                     0                       # What write queue length does an incoming req see
system.mem_ctrls0.wrQLenPdf::55                     0                       # What write queue length does an incoming req see
system.mem_ctrls0.wrQLenPdf::56                     0                       # What write queue length does an incoming req see
system.mem_ctrls0.wrQLenPdf::57                     0                       # What write queue length does an incoming req see
system.mem_ctrls0.wrQLenPdf::58                     0                       # What write queue length does an incoming req see
system.mem_ctrls0.wrQLenPdf::59                     0                       # What write queue length does an incoming req see
system.mem_ctrls0.wrQLenPdf::60                     0                       # What write queue length does an incoming req see
system.mem_ctrls0.wrQLenPdf::61                     0                       # What write queue length does an incoming req see
system.mem_ctrls0.wrQLenPdf::62                     0                       # What write queue length does an incoming req see
system.mem_ctrls0.wrQLenPdf::63                     0                       # What write queue length does an incoming req see
system.mem_ctrls0.bytesPerActivate::samples         7198                       # Bytes accessed per row activation
system.mem_ctrls0.bytesPerActivate::mean   189.937205                       # Bytes accessed per row activation
system.mem_ctrls0.bytesPerActivate::gmean   117.820894                       # Bytes accessed per row activation
system.mem_ctrls0.bytesPerActivate::stdev   246.239407                       # Bytes accessed per row activation
system.mem_ctrls0.bytesPerActivate::0-127         4111     57.11%     57.11% # Bytes accessed per row activation
system.mem_ctrls0.bytesPerActivate::128-255         1604     22.28%     79.40% # Bytes accessed per row activation
system.mem_ctrls0.bytesPerActivate::256-383          536      7.45%     86.84% # Bytes accessed per row activation
system.mem_ctrls0.bytesPerActivate::384-511          214      2.97%     89.82% # Bytes accessed per row activation
system.mem_ctrls0.bytesPerActivate::512-639          151      2.10%     91.91% # Bytes accessed per row activation
system.mem_ctrls0.bytesPerActivate::640-767           87      1.21%     93.12% # Bytes accessed per row activation
system.mem_ctrls0.bytesPerActivate::768-895           67      0.93%     94.05% # Bytes accessed per row activation
system.mem_ctrls0.bytesPerActivate::896-1023           70      0.97%     95.03% # Bytes accessed per row activation
system.mem_ctrls0.bytesPerActivate::1024-1151          358      4.97%    100.00% # Bytes accessed per row activation
system.mem_ctrls0.bytesPerActivate::total         7198                       # Bytes accessed per row activation
system.mem_ctrls0.masterReadBytes::.ruby.dir_cntrl0      1367168                       # Per-master bytes read from memory
system.mem_ctrls0.masterReadRate::.ruby.dir_cntrl0 23060716.127224385738                       # Per-master bytes read from memory rate (Bytes/sec)
system.mem_ctrls0.masterReadAccesses::.ruby.dir_cntrl0        21389                       # Per-master read serviced memory accesses
system.mem_ctrls0.masterWriteAccesses::.ruby.dir_cntrl0           48                       # Per-master write serviced memory accesses
system.mem_ctrls0.masterReadTotalLat::.ruby.dir_cntrl0    873655469                       # Per-master read total memory access latency
system.mem_ctrls0.masterReadAvgLat::.ruby.dir_cntrl0     40846.02                       # Per-master read average memory access latency
system.mem_ctrls0.masterWriteAvgLat::.ruby.dir_cntrl0         0.00                       # Per-master write average memory access latency
system.mem_ctrls0.totQLat                   473117969                       # Total ticks spent queuing
system.mem_ctrls0.totMemAccLat              873655469                       # Total ticks spent from burst creation until serviced by the DRAM
system.mem_ctrls0.totBusLat                 106810000                       # Total ticks spent in databus transfers
system.mem_ctrls0.avgQLat                    22147.64                       # Average queueing delay per DRAM burst
system.mem_ctrls0.avgBusLat                   5000.00                       # Average bus latency per DRAM burst
system.mem_ctrls0.avgMemAccLat               40897.64                       # Average memory access latency per DRAM burst
system.mem_ctrls0.avgRdBW                       23.06                       # Average DRAM read bandwidth in MiByte/s
system.mem_ctrls0.avgWrBW                        0.00                       # Average achieved write bandwidth in MiByte/s
system.mem_ctrls0.avgRdBWSys                    23.09                       # Average system read bandwidth in MiByte/s
system.mem_ctrls0.avgWrBWSys                     0.05                       # Average system write bandwidth in MiByte/s
system.mem_ctrls0.peakBW                     12800.00                       # Theoretical peak bandwidth in MiByte/s
system.mem_ctrls0.busUtil                        0.18                       # Data bus utilization in percentage
system.mem_ctrls0.busUtilRead                    0.18                       # Data bus utilization in percentage for reads
system.mem_ctrls0.busUtilWrite                   0.00                       # Data bus utilization in percentage for writes
system.mem_ctrls0.avgRdQLen                      1.06                       # Average read queue length when enqueuing
system.mem_ctrls0.avgWrQLen                     14.40                       # Average write queue length when enqueuing
system.mem_ctrls0.readRowHits                   14164                       # Number of row buffer hits during reads
system.mem_ctrls0.writeRowHits                      0                       # Number of row buffer hits during writes
system.mem_ctrls0.readRowHitRate                66.30                       # Row buffer hit rate for reads
system.mem_ctrls0.writeRowHitRate                0.00                       # Row buffer hit rate for writes
system.mem_ctrls0.avgGap                   2395427.49                       # Average gap between requests
system.mem_ctrls0.pageHitRate                   66.24                       # Row buffer hit rate, read and write combined
system.mem_ctrls0_0.actEnergy                27231960                       # Energy for activate commands per rank (pJ)
system.mem_ctrls0_0.preEnergy                14474130                       # Energy for precharge commands per rank (pJ)
system.mem_ctrls0_0.readEnergy               80781960                       # Energy for read commands per rank (pJ)
system.mem_ctrls0_0.writeEnergy                     0                       # Energy for write commands per rank (pJ)
system.mem_ctrls0_0.refreshEnergy        383535360.000000                       # Energy for refresh commands per rank (pJ)
system.mem_ctrls0_0.actBackEnergy           229225500                       # Energy for active background per rank (pJ)
system.mem_ctrls0_0.preBackEnergy            17782560                       # Energy for precharge background per rank (pJ)
system.mem_ctrls0_0.actPowerDownEnergy     1467303120                       # Energy for active power-down per rank (pJ)
system.mem_ctrls0_0.prePowerDownEnergy      431734080                       # Energy for precharge power-down per rank (pJ)
system.mem_ctrls0_0.selfRefreshEnergy     13104913440                       # Energy for self refresh per rank (pJ)
system.mem_ctrls0_0.totalEnergy           15757027620                       # Total energy per rank (pJ)
system.mem_ctrls0_0.averagePower           265.781777                       # Core power per rank (mW)
system.mem_ctrls0_0.totalIdleTime         50241580000                       # Total Idle time Per DRAM Rank
system.mem_ctrls0_0.memoryStateTime::IDLE     28517501                       # Time in different power states
system.mem_ctrls0_0.memoryStateTime::REF    162240000                       # Time in different power states
system.mem_ctrls0_0.memoryStateTime::SREF  54394319750                       # Time in different power states
system.mem_ctrls0_0.memoryStateTime::PRE_PDN   1124362000                       # Time in different power states
system.mem_ctrls0_0.memoryStateTime::ACT    358350499                       # Time in different power states
system.mem_ctrls0_0.memoryStateTime::ACT_PDN   3217782250                       # Time in different power states
system.mem_ctrls0_1.actEnergy                24161760                       # Energy for activate commands per rank (pJ)
system.mem_ctrls0_1.preEnergy                12842280                       # Energy for precharge commands per rank (pJ)
system.mem_ctrls0_1.readEnergy               71742720                       # Energy for read commands per rank (pJ)
system.mem_ctrls0_1.writeEnergy                     0                       # Energy for write commands per rank (pJ)
system.mem_ctrls0_1.refreshEnergy        360793680.000000                       # Energy for refresh commands per rank (pJ)
system.mem_ctrls0_1.actBackEnergy           207603690                       # Energy for active background per rank (pJ)
system.mem_ctrls0_1.preBackEnergy            17437920                       # Energy for precharge background per rank (pJ)
system.mem_ctrls0_1.actPowerDownEnergy     1352969100                       # Energy for active power-down per rank (pJ)
system.mem_ctrls0_1.prePowerDownEnergy      436119360                       # Energy for precharge power-down per rank (pJ)
system.mem_ctrls0_1.selfRefreshEnergy     13175065920                       # Energy for self refresh per rank (pJ)
system.mem_ctrls0_1.totalEnergy           15658852290                       # Total energy per rank (pJ)
system.mem_ctrls0_1.averagePower           264.125804                       # Core power per rank (mW)
system.mem_ctrls0_1.totalIdleTime         50858578003                       # Total Idle time Per DRAM Rank
system.mem_ctrls0_1.memoryStateTime::IDLE     28539500                       # Time in different power states
system.mem_ctrls0_1.memoryStateTime::REF    152620000                       # Time in different power states
system.mem_ctrls0_1.memoryStateTime::SREF  54681859000                       # Time in different power states
system.mem_ctrls0_1.memoryStateTime::PRE_PDN   1135746750                       # Time in different power states
system.mem_ctrls0_1.memoryStateTime::ACT    319747497                       # Time in different power states
system.mem_ctrls0_1.memoryStateTime::ACT_PDN   2967059253                       # Time in different power states
system.mem_ctrls1.pwrStateResidencyTicks::UNDEFINED 2424276388000                       # Cumulative time (in ticks) in various power states
system.mem_ctrls1.bytes_read::.cpu0.data           16                       # Number of bytes read from this memory
system.mem_ctrls1.bytes_read::.ruby.dir_cntrl1     54078976                       # Number of bytes read from this memory
system.mem_ctrls1.bytes_read::total          54078992                       # Number of bytes read from this memory
system.mem_ctrls1.bytes_written::.ruby.dir_cntrl1         2560                       # Number of bytes written to this memory
system.mem_ctrls1.bytes_written::total           2560                       # Number of bytes written to this memory
system.mem_ctrls1.num_reads::.cpu0.data             2                       # Number of read requests responded to by this memory
system.mem_ctrls1.num_reads::.ruby.dir_cntrl1       844984                       # Number of read requests responded to by this memory
system.mem_ctrls1.num_reads::total             844986                       # Number of read requests responded to by this memory
system.mem_ctrls1.num_writes::.ruby.dir_cntrl1           40                       # Number of write requests responded to by this memory
system.mem_ctrls1.num_writes::total                40                       # Number of write requests responded to by this memory
system.mem_ctrls1.bw_read::.cpu0.data             270                       # Total read bandwidth from this memory (bytes/s)
system.mem_ctrls1.bw_read::.ruby.dir_cntrl1    912177519                       # Total read bandwidth from this memory (bytes/s)
system.mem_ctrls1.bw_read::total            912177789                       # Total read bandwidth from this memory (bytes/s)
system.mem_ctrls1.bw_write::.ruby.dir_cntrl1        43181                       # Write bandwidth from this memory (bytes/s)
system.mem_ctrls1.bw_write::total               43181                       # Write bandwidth from this memory (bytes/s)
system.mem_ctrls1.bw_total::.cpu0.data            270                       # Total bandwidth to/from this memory (bytes/s)
system.mem_ctrls1.bw_total::.ruby.dir_cntrl1    912220700                       # Total bandwidth to/from this memory (bytes/s)
system.mem_ctrls1.bw_total::total           912220969                       # Total bandwidth to/from this memory (bytes/s)
system.mem_ctrls1.avgPriority_.ruby.dir_cntrl1::samples    844969.00                       # Average QoS priority value for accepted requests
system.mem_ctrls1.priorityMinLatency     0.000000018750                       # per QoS priority minimum request to response latency (s)
system.mem_ctrls1.priorityMaxLatency     0.000001138500                       # per QoS priority maximum request to response latency (s)
system.mem_ctrls1.numReadWriteTurnArounds            0                       # Number of turnarounds from READ to WRITE
system.mem_ctrls1.numWriteReadTurnArounds            0                       # Number of turnarounds from WRITE to READ
system.mem_ctrls1.numStayReadState            1697449                       # Number of times bus staying in READ state
system.mem_ctrls1.numStayWriteState                 0                       # Number of times bus staying in WRITE state
system.mem_ctrls1.readReqs                     844985                       # Number of read requests accepted
system.mem_ctrls1.writeReqs                        40                       # Number of write requests accepted
system.mem_ctrls1.readBursts                   844985                       # Number of DRAM read bursts, including those serviced by the write queue
system.mem_ctrls1.writeBursts                      40                       # Number of DRAM write bursts, including those merged in the write queue
system.mem_ctrls1.bytesReadDRAM              54077248                       # Total number of bytes read from DRAM
system.mem_ctrls1.bytesReadWrQ                   1792                       # Total number of bytes read from write queue
system.mem_ctrls1.bytesWritten                      0                       # Total number of bytes written to DRAM
system.mem_ctrls1.bytesReadSys               54079040                       # Total read bytes from the system interface side
system.mem_ctrls1.bytesWrittenSys                2560                       # Total written bytes from the system interface side
system.mem_ctrls1.servicedByWrQ                    28                       # Number of DRAM read bursts serviced by the write queue
system.mem_ctrls1.mergedWrBursts                   28                       # Number of DRAM write bursts merged with an existing one
system.mem_ctrls1.neitherReadNorWriteReqs            0                       # Number of requests that are neither read nor write
system.mem_ctrls1.perBankRdBursts::0           825068                       # Per bank write bursts
system.mem_ctrls1.perBankRdBursts::1             1520                       # Per bank write bursts
system.mem_ctrls1.perBankRdBursts::2             1198                       # Per bank write bursts
system.mem_ctrls1.perBankRdBursts::3             1449                       # Per bank write bursts
system.mem_ctrls1.perBankRdBursts::4             1508                       # Per bank write bursts
system.mem_ctrls1.perBankRdBursts::5             1452                       # Per bank write bursts
system.mem_ctrls1.perBankRdBursts::6             1384                       # Per bank write bursts
system.mem_ctrls1.perBankRdBursts::7             1376                       # Per bank write bursts
system.mem_ctrls1.perBankRdBursts::8             1330                       # Per bank write bursts
system.mem_ctrls1.perBankRdBursts::9             1365                       # Per bank write bursts
system.mem_ctrls1.perBankRdBursts::10            1182                       # Per bank write bursts
system.mem_ctrls1.perBankRdBursts::11             967                       # Per bank write bursts
system.mem_ctrls1.perBankRdBursts::12            1593                       # Per bank write bursts
system.mem_ctrls1.perBankRdBursts::13            1304                       # Per bank write bursts
system.mem_ctrls1.perBankRdBursts::14            1262                       # Per bank write bursts
system.mem_ctrls1.perBankRdBursts::15             999                       # Per bank write bursts
system.mem_ctrls1.perBankWrBursts::0                0                       # Per bank write bursts
system.mem_ctrls1.perBankWrBursts::1                0                       # Per bank write bursts
system.mem_ctrls1.perBankWrBursts::2                0                       # Per bank write bursts
system.mem_ctrls1.perBankWrBursts::3                0                       # Per bank write bursts
system.mem_ctrls1.perBankWrBursts::4                0                       # Per bank write bursts
system.mem_ctrls1.perBankWrBursts::5                0                       # Per bank write bursts
system.mem_ctrls1.perBankWrBursts::6                0                       # Per bank write bursts
system.mem_ctrls1.perBankWrBursts::7                0                       # Per bank write bursts
system.mem_ctrls1.perBankWrBursts::8                0                       # Per bank write bursts
system.mem_ctrls1.perBankWrBursts::9                0                       # Per bank write bursts
system.mem_ctrls1.perBankWrBursts::10               0                       # Per bank write bursts
system.mem_ctrls1.perBankWrBursts::11               0                       # Per bank write bursts
system.mem_ctrls1.perBankWrBursts::12               0                       # Per bank write bursts
system.mem_ctrls1.perBankWrBursts::13               0                       # Per bank write bursts
system.mem_ctrls1.perBankWrBursts::14               0                       # Per bank write bursts
system.mem_ctrls1.perBankWrBursts::15               0                       # Per bank write bursts
system.mem_ctrls1.numRdRetry                        0                       # Number of times read queue was full causing retry
system.mem_ctrls1.numWrRetry                        0                       # Number of times write queue was full causing retry
system.mem_ctrls1.totGap                  59285547500                       # Total gap between requests
system.mem_ctrls1.readPktSize::0                    0                       # Read request sizes (log2)
system.mem_ctrls1.readPktSize::1                    0                       # Read request sizes (log2)
system.mem_ctrls1.readPktSize::2                    0                       # Read request sizes (log2)
system.mem_ctrls1.readPktSize::3                    0                       # Read request sizes (log2)
system.mem_ctrls1.readPktSize::4                    0                       # Read request sizes (log2)
system.mem_ctrls1.readPktSize::5                    0                       # Read request sizes (log2)
system.mem_ctrls1.readPktSize::6               844985                       # Read request sizes (log2)
system.mem_ctrls1.writePktSize::0                   0                       # Write request sizes (log2)
system.mem_ctrls1.writePktSize::1                   0                       # Write request sizes (log2)
system.mem_ctrls1.writePktSize::2                   0                       # Write request sizes (log2)
system.mem_ctrls1.writePktSize::3                   0                       # Write request sizes (log2)
system.mem_ctrls1.writePktSize::4                   0                       # Write request sizes (log2)
system.mem_ctrls1.writePktSize::5                   0                       # Write request sizes (log2)
system.mem_ctrls1.writePktSize::6                  40                       # Write request sizes (log2)
system.mem_ctrls1.rdQLenPdf::0                 840181                       # What read queue length does an incoming req see
system.mem_ctrls1.rdQLenPdf::1                   3926                       # What read queue length does an incoming req see
system.mem_ctrls1.rdQLenPdf::2                    721                       # What read queue length does an incoming req see
system.mem_ctrls1.rdQLenPdf::3                    104                       # What read queue length does an incoming req see
system.mem_ctrls1.rdQLenPdf::4                     14                       # What read queue length does an incoming req see
system.mem_ctrls1.rdQLenPdf::5                      8                       # What read queue length does an incoming req see
system.mem_ctrls1.rdQLenPdf::6                      2                       # What read queue length does an incoming req see
system.mem_ctrls1.rdQLenPdf::7                      1                       # What read queue length does an incoming req see
system.mem_ctrls1.rdQLenPdf::8                      0                       # What read queue length does an incoming req see
system.mem_ctrls1.rdQLenPdf::9                      0                       # What read queue length does an incoming req see
system.mem_ctrls1.rdQLenPdf::10                     0                       # What read queue length does an incoming req see
system.mem_ctrls1.rdQLenPdf::11                     0                       # What read queue length does an incoming req see
system.mem_ctrls1.rdQLenPdf::12                     0                       # What read queue length does an incoming req see
system.mem_ctrls1.rdQLenPdf::13                     0                       # What read queue length does an incoming req see
system.mem_ctrls1.rdQLenPdf::14                     0                       # What read queue length does an incoming req see
system.mem_ctrls1.rdQLenPdf::15                     0                       # What read queue length does an incoming req see
system.mem_ctrls1.rdQLenPdf::16                     0                       # What read queue length does an incoming req see
system.mem_ctrls1.rdQLenPdf::17                     0                       # What read queue length does an incoming req see
system.mem_ctrls1.rdQLenPdf::18                     0                       # What read queue length does an incoming req see
system.mem_ctrls1.rdQLenPdf::19                     0                       # What read queue length does an incoming req see
system.mem_ctrls1.rdQLenPdf::20                     0                       # What read queue length does an incoming req see
system.mem_ctrls1.rdQLenPdf::21                     0                       # What read queue length does an incoming req see
system.mem_ctrls1.rdQLenPdf::22                     0                       # What read queue length does an incoming req see
system.mem_ctrls1.rdQLenPdf::23                     0                       # What read queue length does an incoming req see
system.mem_ctrls1.rdQLenPdf::24                     0                       # What read queue length does an incoming req see
system.mem_ctrls1.rdQLenPdf::25                     0                       # What read queue length does an incoming req see
system.mem_ctrls1.rdQLenPdf::26                     0                       # What read queue length does an incoming req see
system.mem_ctrls1.rdQLenPdf::27                     0                       # What read queue length does an incoming req see
system.mem_ctrls1.rdQLenPdf::28                     0                       # What read queue length does an incoming req see
system.mem_ctrls1.rdQLenPdf::29                     0                       # What read queue length does an incoming req see
system.mem_ctrls1.rdQLenPdf::30                     0                       # What read queue length does an incoming req see
system.mem_ctrls1.rdQLenPdf::31                     0                       # What read queue length does an incoming req see
system.mem_ctrls1.wrQLenPdf::0                      1                       # What write queue length does an incoming req see
system.mem_ctrls1.wrQLenPdf::1                      1                       # What write queue length does an incoming req see
system.mem_ctrls1.wrQLenPdf::2                      1                       # What write queue length does an incoming req see
system.mem_ctrls1.wrQLenPdf::3                      1                       # What write queue length does an incoming req see
system.mem_ctrls1.wrQLenPdf::4                      1                       # What write queue length does an incoming req see
system.mem_ctrls1.wrQLenPdf::5                      1                       # What write queue length does an incoming req see
system.mem_ctrls1.wrQLenPdf::6                      1                       # What write queue length does an incoming req see
system.mem_ctrls1.wrQLenPdf::7                      1                       # What write queue length does an incoming req see
system.mem_ctrls1.wrQLenPdf::8                      1                       # What write queue length does an incoming req see
system.mem_ctrls1.wrQLenPdf::9                      1                       # What write queue length does an incoming req see
system.mem_ctrls1.wrQLenPdf::10                     1                       # What write queue length does an incoming req see
system.mem_ctrls1.wrQLenPdf::11                     1                       # What write queue length does an incoming req see
system.mem_ctrls1.wrQLenPdf::12                     0                       # What write queue length does an incoming req see
system.mem_ctrls1.wrQLenPdf::13                     0                       # What write queue length does an incoming req see
system.mem_ctrls1.wrQLenPdf::14                     0                       # What write queue length does an incoming req see
system.mem_ctrls1.wrQLenPdf::15                     0                       # What write queue length does an incoming req see
system.mem_ctrls1.wrQLenPdf::16                     0                       # What write queue length does an incoming req see
system.mem_ctrls1.wrQLenPdf::17                     0                       # What write queue length does an incoming req see
system.mem_ctrls1.wrQLenPdf::18                     0                       # What write queue length does an incoming req see
system.mem_ctrls1.wrQLenPdf::19                     0                       # What write queue length does an incoming req see
system.mem_ctrls1.wrQLenPdf::20                     0                       # What write queue length does an incoming req see
system.mem_ctrls1.wrQLenPdf::21                     0                       # What write queue length does an incoming req see
system.mem_ctrls1.wrQLenPdf::22                     0                       # What write queue length does an incoming req see
system.mem_ctrls1.wrQLenPdf::23                     0                       # What write queue length does an incoming req see
system.mem_ctrls1.wrQLenPdf::24                     0                       # What write queue length does an incoming req see
system.mem_ctrls1.wrQLenPdf::25                     0                       # What write queue length does an incoming req see
system.mem_ctrls1.wrQLenPdf::26                     0                       # What write queue length does an incoming req see
system.mem_ctrls1.wrQLenPdf::27                     0                       # What write queue length does an incoming req see
system.mem_ctrls1.wrQLenPdf::28                     0                       # What write queue length does an incoming req see
system.mem_ctrls1.wrQLenPdf::29                     0                       # What write queue length does an incoming req see
system.mem_ctrls1.wrQLenPdf::30                     0                       # What write queue length does an incoming req see
system.mem_ctrls1.wrQLenPdf::31                     0                       # What write queue length does an incoming req see
system.mem_ctrls1.wrQLenPdf::32                     0                       # What write queue length does an incoming req see
system.mem_ctrls1.wrQLenPdf::33                     0                       # What write queue length does an incoming req see
system.mem_ctrls1.wrQLenPdf::34                     0                       # What write queue length does an incoming req see
system.mem_ctrls1.wrQLenPdf::35                     0                       # What write queue length does an incoming req see
system.mem_ctrls1.wrQLenPdf::36                     0                       # What write queue length does an incoming req see
system.mem_ctrls1.wrQLenPdf::37                     0                       # What write queue length does an incoming req see
system.mem_ctrls1.wrQLenPdf::38                     0                       # What write queue length does an incoming req see
system.mem_ctrls1.wrQLenPdf::39                     0                       # What write queue length does an incoming req see
system.mem_ctrls1.wrQLenPdf::40                     0                       # What write queue length does an incoming req see
system.mem_ctrls1.wrQLenPdf::41                     0                       # What write queue length does an incoming req see
system.mem_ctrls1.wrQLenPdf::42                     0                       # What write queue length does an incoming req see
system.mem_ctrls1.wrQLenPdf::43                     0                       # What write queue length does an incoming req see
system.mem_ctrls1.wrQLenPdf::44                     0                       # What write queue length does an incoming req see
system.mem_ctrls1.wrQLenPdf::45                     0                       # What write queue length does an incoming req see
system.mem_ctrls1.wrQLenPdf::46                     0                       # What write queue length does an incoming req see
system.mem_ctrls1.wrQLenPdf::47                     0                       # What write queue length does an incoming req see
system.mem_ctrls1.wrQLenPdf::48                     0                       # What write queue length does an incoming req see
system.mem_ctrls1.wrQLenPdf::49                     0                       # What write queue length does an incoming req see
system.mem_ctrls1.wrQLenPdf::50                     0                       # What write queue length does an incoming req see
system.mem_ctrls1.wrQLenPdf::51                     0                       # What write queue length does an incoming req see
system.mem_ctrls1.wrQLenPdf::52                     0                       # What write queue length does an incoming req see
system.mem_ctrls1.wrQLenPdf::53                     0                       # What write queue length does an incoming req see
system.mem_ctrls1.wrQLenPdf::54                     0                       # What write queue length does an incoming req see
system.mem_ctrls1.wrQLenPdf::55                     0                       # What write queue length does an incoming req see
system.mem_ctrls1.wrQLenPdf::56                     0                       # What write queue length does an incoming req see
system.mem_ctrls1.wrQLenPdf::57                     0                       # What write queue length does an incoming req see
system.mem_ctrls1.wrQLenPdf::58                     0                       # What write queue length does an incoming req see
system.mem_ctrls1.wrQLenPdf::59                     0                       # What write queue length does an incoming req see
system.mem_ctrls1.wrQLenPdf::60                     0                       # What write queue length does an incoming req see
system.mem_ctrls1.wrQLenPdf::61                     0                       # What write queue length does an incoming req see
system.mem_ctrls1.wrQLenPdf::62                     0                       # What write queue length does an incoming req see
system.mem_ctrls1.wrQLenPdf::63                     0                       # What write queue length does an incoming req see
system.mem_ctrls1.bytesPerActivate::samples        62114                       # Bytes accessed per row activation
system.mem_ctrls1.bytesPerActivate::mean   870.609782                       # Bytes accessed per row activation
system.mem_ctrls1.bytesPerActivate::gmean   737.671357                       # Bytes accessed per row activation
system.mem_ctrls1.bytesPerActivate::stdev   305.481160                       # Bytes accessed per row activation
system.mem_ctrls1.bytesPerActivate::0-127         4119      6.63%      6.63% # Bytes accessed per row activation
system.mem_ctrls1.bytesPerActivate::128-255         1604      2.58%      9.21% # Bytes accessed per row activation
system.mem_ctrls1.bytesPerActivate::256-383          529      0.85%     10.07% # Bytes accessed per row activation
system.mem_ctrls1.bytesPerActivate::384-511          245      0.39%     10.46% # Bytes accessed per row activation
system.mem_ctrls1.bytesPerActivate::512-639         6975     11.23%     21.69% # Bytes accessed per row activation
system.mem_ctrls1.bytesPerActivate::640-767           94      0.15%     21.84% # Bytes accessed per row activation
system.mem_ctrls1.bytesPerActivate::768-895           67      0.11%     21.95% # Bytes accessed per row activation
system.mem_ctrls1.bytesPerActivate::896-1023           73      0.12%     22.07% # Bytes accessed per row activation
system.mem_ctrls1.bytesPerActivate::1024-1151        48408     77.93%    100.00% # Bytes accessed per row activation
system.mem_ctrls1.bytesPerActivate::total        62114                       # Bytes accessed per row activation
system.mem_ctrls1.masterReadBytes::.ruby.dir_cntrl1     54077248                       # Per-master bytes read from memory
system.mem_ctrls1.masterReadRate::.ruby.dir_cntrl1 912148371.721333980560                       # Per-master bytes read from memory rate (Bytes/sec)
system.mem_ctrls1.masterReadAccesses::.ruby.dir_cntrl1       844985                       # Per-master read serviced memory accesses
system.mem_ctrls1.masterWriteAccesses::.ruby.dir_cntrl1           40                       # Per-master write serviced memory accesses
system.mem_ctrls1.masterReadTotalLat::.ruby.dir_cntrl1  23641312971                       # Per-master read total memory access latency
system.mem_ctrls1.masterReadAvgLat::.ruby.dir_cntrl1     27978.38                       # Per-master read average memory access latency
system.mem_ctrls1.masterWriteAvgLat::.ruby.dir_cntrl1         0.00                       # Per-master write average memory access latency
system.mem_ctrls1.totQLat                  7798369221                       # Total ticks spent queuing
system.mem_ctrls1.totMemAccLat            23641312971                       # Total ticks spent from burst creation until serviced by the DRAM
system.mem_ctrls1.totBusLat                4224785000                       # Total ticks spent in databus transfers
system.mem_ctrls1.avgQLat                     9229.31                       # Average queueing delay per DRAM burst
system.mem_ctrls1.avgBusLat                   5000.00                       # Average bus latency per DRAM burst
system.mem_ctrls1.avgMemAccLat               27979.31                       # Average memory access latency per DRAM burst
system.mem_ctrls1.avgRdBW                      912.15                       # Average DRAM read bandwidth in MiByte/s
system.mem_ctrls1.avgWrBW                        0.00                       # Average achieved write bandwidth in MiByte/s
system.mem_ctrls1.avgRdBWSys                   912.18                       # Average system read bandwidth in MiByte/s
system.mem_ctrls1.avgWrBWSys                     0.04                       # Average system write bandwidth in MiByte/s
system.mem_ctrls1.peakBW                     12800.00                       # Theoretical peak bandwidth in MiByte/s
system.mem_ctrls1.busUtil                        7.13                       # Data bus utilization in percentage
system.mem_ctrls1.busUtilRead                    7.13                       # Data bus utilization in percentage for reads
system.mem_ctrls1.busUtilWrite                   0.00                       # Data bus utilization in percentage for writes
system.mem_ctrls1.avgRdQLen                      1.01                       # Average read queue length when enqueuing
system.mem_ctrls1.avgWrQLen                     10.71                       # Average write queue length when enqueuing
system.mem_ctrls1.readRowHits                  782842                       # Number of row buffer hits during reads
system.mem_ctrls1.writeRowHits                      0                       # Number of row buffer hits during writes
system.mem_ctrls1.readRowHitRate                92.65                       # Row buffer hit rate for reads
system.mem_ctrls1.writeRowHitRate                0.00                       # Row buffer hit rate for writes
system.mem_ctrls1.avgGap                     70158.34                       # Average gap between requests
system.mem_ctrls1.pageHitRate                   92.65                       # Row buffer hit rate, read and write combined
system.mem_ctrls1_0.actEnergy               419660640                       # Energy for activate commands per rank (pJ)
system.mem_ctrls1_0.preEnergy               223051125                       # Energy for precharge commands per rank (pJ)
system.mem_ctrls1_0.readEnergy             5961578700                       # Energy for read commands per rank (pJ)
system.mem_ctrls1_0.writeEnergy                     0                       # Energy for write commands per rank (pJ)
system.mem_ctrls1_0.refreshEnergy        4589516880.000001                       # Energy for refresh commands per rank (pJ)
system.mem_ctrls1_0.actBackEnergy         10238719620                       # Energy for active background per rank (pJ)
system.mem_ctrls1_0.preBackEnergy           460447680                       # Energy for precharge background per rank (pJ)
system.mem_ctrls1_0.actPowerDownEnergy    14518441500                       # Energy for active power-down per rank (pJ)
system.mem_ctrls1_0.prePowerDownEnergy     1026861600                       # Energy for precharge power-down per rank (pJ)
system.mem_ctrls1_0.selfRefreshEnergy       310299900                       # Energy for self refresh per rank (pJ)
system.mem_ctrls1_0.totalEnergy           37748958015                       # Total energy per rank (pJ)
system.mem_ctrls1_0.averagePower           636.730822                       # Core power per rank (mW)
system.mem_ctrls1_0.totalIdleTime         35629853752                       # Total Idle time Per DRAM Rank
system.mem_ctrls1_0.memoryStateTime::IDLE    332517500                       # Time in different power states
system.mem_ctrls1_0.memoryStateTime::REF   1941420000                       # Time in different power states
system.mem_ctrls1_0.memoryStateTime::SREF   1119495250                       # Time in different power states
system.mem_ctrls1_0.memoryStateTime::PRE_PDN   2672616251                       # Time in different power states
system.mem_ctrls1_0.memoryStateTime::ACT  21381780748                       # Time in different power states
system.mem_ctrls1_0.memoryStateTime::ACT_PDN  31837742251                       # Time in different power states
system.mem_ctrls1_1.actEnergy                23840460                       # Energy for activate commands per rank (pJ)
system.mem_ctrls1_1.preEnergy                12671505                       # Energy for precharge commands per rank (pJ)
system.mem_ctrls1_1.readEnergy               71414280                       # Energy for read commands per rank (pJ)
system.mem_ctrls1_1.writeEnergy                     0                       # Energy for write commands per rank (pJ)
system.mem_ctrls1_1.refreshEnergy        362637600.000000                       # Energy for refresh commands per rank (pJ)
system.mem_ctrls1_1.actBackEnergy           209569050                       # Energy for active background per rank (pJ)
system.mem_ctrls1_1.preBackEnergy            18567840                       # Energy for precharge background per rank (pJ)
system.mem_ctrls1_1.actPowerDownEnergy     1351118880                       # Energy for active power-down per rank (pJ)
system.mem_ctrls1_1.prePowerDownEnergy      444611040                       # Energy for precharge power-down per rank (pJ)
system.mem_ctrls1_1.selfRefreshEnergy     13173355440                       # Energy for self refresh per rank (pJ)
system.mem_ctrls1_1.totalEnergy           15667918065                       # Total energy per rank (pJ)
system.mem_ctrls1_1.averagePower           264.278721                       # Core power per rank (mW)
system.mem_ctrls1_1.totalIdleTime         50850522508                       # Total Idle time Per DRAM Rank
system.mem_ctrls1_1.memoryStateTime::IDLE     31033500                       # Time in different power states
system.mem_ctrls1_1.memoryStateTime::REF    153400000                       # Time in different power states
system.mem_ctrls1_1.memoryStateTime::SREF  54656292250                       # Time in different power states
system.mem_ctrls1_1.memoryStateTime::PRE_PDN   1157858751                       # Time in different power states
system.mem_ctrls1_1.memoryStateTime::ACT    323886992                       # Time in different power states
system.mem_ctrls1_1.memoryStateTime::ACT_PDN   2963100507                       # Time in different power states
system.pwrStateResidencyTicks::UNDEFINED 2424276388000                       # Cumulative time (in ticks) in various power states
system.cpu_voltage_domain.voltage                   1                       # Voltage in Volts
system.cpu_clk_domain.clock                       500                       # Clock period in ticks
system.cpu0.dtb.walker.pwrStateResidencyTicks::UNDEFINED 2424276388000                       # Cumulative time (in ticks) in various power states
system.cpu0.dtb.rdAccesses                          4                       # TLB accesses on read requests
system.cpu0.dtb.wrAccesses                          0                       # TLB accesses on write requests
system.cpu0.dtb.rdMisses                            0                       # TLB misses on read requests
system.cpu0.dtb.wrMisses                            0                       # TLB misses on write requests
system.cpu0.apic_clk_domain.clock                8000                       # Clock period in ticks
system.cpu0.interrupts.pwrStateResidencyTicks::UNDEFINED 2424276388000                       # Cumulative time (in ticks) in various power states
system.cpu0.itb.walker.pwrStateResidencyTicks::UNDEFINED 2424276388000                       # Cumulative time (in ticks) in various power states
system.cpu0.itb.rdAccesses                          0                       # TLB accesses on read requests
system.cpu0.itb.wrAccesses                          8                       # TLB accesses on write requests
system.cpu0.itb.rdMisses                            0                       # TLB misses on read requests
system.cpu0.itb.wrMisses                            0                       # TLB misses on write requests
system.cpu0.numPwrStateTransitions                  1                       # Number of power state transitions
system.cpu0.pwrStateResidencyTicks::ON          11000                       # Cumulative time (in ticks) in various power states
system.cpu0.pwrStateResidencyTicks::OFF   59285572000                       # Cumulative time (in ticks) in various power states
system.cpu0.numCycles                              22                       # number of cpu cycles simulated
system.cpu0.numWorkItemsStarted                     0                       # number of work items this cpu started
system.cpu0.numWorkItemsCompleted                   0                       # number of work items this cpu completed
system.cpu0.kern.inst.arm                           0                       # number of arm instructions executed
system.cpu0.kern.inst.quiesce                       0                       # number of quiesce instructions executed
system.cpu0.committedInsts                          7                       # Number of instructions committed
system.cpu0.committedOps                           21                       # Number of ops (including micro ops) committed
system.cpu0.num_int_alu_accesses                    9                       # Number of integer alu accesses
system.cpu0.num_fp_alu_accesses                    12                       # Number of float alu accesses
system.cpu0.num_vec_alu_accesses                    0                       # Number of vector alu accesses
system.cpu0.num_func_calls                          0                       # number of times a function call or return occured
system.cpu0.num_conditional_control_insts            2                       # number of instructions that are conditional controls
system.cpu0.num_int_insts                           9                       # number of integer instructions
system.cpu0.num_fp_insts                           12                       # number of float instructions
system.cpu0.num_vec_insts                           0                       # number of vector instructions
system.cpu0.num_int_register_reads                 20                       # number of times the integer registers were read
system.cpu0.num_int_register_writes                 4                       # number of times the integer registers were written
system.cpu0.num_fp_register_reads                  18                       # number of times the floating registers were read
system.cpu0.num_fp_register_writes                 12                       # number of times the floating registers were written
system.cpu0.num_vec_register_reads                  0                       # number of times the vector registers were read
system.cpu0.num_vec_register_writes                 0                       # number of times the vector registers were written
system.cpu0.num_cc_register_reads                  10                       # number of times the CC registers were read
system.cpu0.num_cc_register_writes                  2                       # number of times the CC registers were written
system.cpu0.num_mem_refs                            4                       # number of memory refs
system.cpu0.num_load_insts                          4                       # Number of load instructions
system.cpu0.num_store_insts                         0                       # Number of store instructions
system.cpu0.num_idle_cycles                         0                       # Number of idle cycles
system.cpu0.num_busy_cycles                        22                       # Number of busy cycles
system.cpu0.not_idle_fraction                       1                       # Percentage of non-idle cycles
system.cpu0.idle_fraction                           0                       # Percentage of idle cycles
system.cpu0.Branches                                4                       # Number of branches fetched
system.cpu0.op_class::No_OpClass                    4     19.05%     19.05% # Class of executed instruction
system.cpu0.op_class::IntAlu                        5     23.81%     42.86% # Class of executed instruction
system.cpu0.op_class::IntMult                       0      0.00%     42.86% # Class of executed instruction
system.cpu0.op_class::IntDiv                        0      0.00%     42.86% # Class of executed instruction
system.cpu0.op_class::FloatAdd                      1      4.76%     47.62% # Class of executed instruction
system.cpu0.op_class::FloatCmp                      0      0.00%     47.62% # Class of executed instruction
system.cpu0.op_class::FloatCvt                      0      0.00%     47.62% # Class of executed instruction
system.cpu0.op_class::FloatMult                     0      0.00%     47.62% # Class of executed instruction
system.cpu0.op_class::FloatMultAcc                  0      0.00%     47.62% # Class of executed instruction
system.cpu0.op_class::FloatDiv                      0      0.00%     47.62% # Class of executed instruction
system.cpu0.op_class::FloatMisc                     0      0.00%     47.62% # Class of executed instruction
system.cpu0.op_class::FloatSqrt                     0      0.00%     47.62% # Class of executed instruction
system.cpu0.op_class::SimdAdd                       0      0.00%     47.62% # Class of executed instruction
system.cpu0.op_class::SimdAddAcc                    0      0.00%     47.62% # Class of executed instruction
system.cpu0.op_class::SimdAlu                       2      9.52%     57.14% # Class of executed instruction
system.cpu0.op_class::SimdCmp                       0      0.00%     57.14% # Class of executed instruction
system.cpu0.op_class::SimdCvt                       4     19.05%     76.19% # Class of executed instruction
system.cpu0.op_class::SimdMisc                      0      0.00%     76.19% # Class of executed instruction
system.cpu0.op_class::SimdMult                      0      0.00%     76.19% # Class of executed instruction
system.cpu0.op_class::SimdMultAcc                   0      0.00%     76.19% # Class of executed instruction
system.cpu0.op_class::SimdShift                     1      4.76%     80.95% # Class of executed instruction
system.cpu0.op_class::SimdShiftAcc                  0      0.00%     80.95% # Class of executed instruction
system.cpu0.op_class::SimdSqrt                      0      0.00%     80.95% # Class of executed instruction
system.cpu0.op_class::SimdFloatAdd                  0      0.00%     80.95% # Class of executed instruction
system.cpu0.op_class::SimdFloatAlu                  0      0.00%     80.95% # Class of executed instruction
system.cpu0.op_class::SimdFloatCmp                  0      0.00%     80.95% # Class of executed instruction
system.cpu0.op_class::SimdFloatCvt                  0      0.00%     80.95% # Class of executed instruction
system.cpu0.op_class::SimdFloatDiv                  0      0.00%     80.95% # Class of executed instruction
system.cpu0.op_class::SimdFloatMisc                 0      0.00%     80.95% # Class of executed instruction
system.cpu0.op_class::SimdFloatMult                 0      0.00%     80.95% # Class of executed instruction
system.cpu0.op_class::SimdFloatMultAcc              0      0.00%     80.95% # Class of executed instruction
system.cpu0.op_class::SimdFloatSqrt                 0      0.00%     80.95% # Class of executed instruction
system.cpu0.op_class::SimdAes                       0      0.00%     80.95% # Class of executed instruction
system.cpu0.op_class::SimdAesMix                    0      0.00%     80.95% # Class of executed instruction
system.cpu0.op_class::SimdSha1Hash                  0      0.00%     80.95% # Class of executed instruction
system.cpu0.op_class::SimdSha1Hash2                 0      0.00%     80.95% # Class of executed instruction
system.cpu0.op_class::SimdSha256Hash                0      0.00%     80.95% # Class of executed instruction
system.cpu0.op_class::SimdSha256Hash2               0      0.00%     80.95% # Class of executed instruction
system.cpu0.op_class::SimdShaSigma2                 0      0.00%     80.95% # Class of executed instruction
system.cpu0.op_class::SimdShaSigma3                 0      0.00%     80.95% # Class of executed instruction
system.cpu0.op_class::MemRead                       0      0.00%     80.95% # Class of executed instruction
system.cpu0.op_class::MemWrite                      0      0.00%     80.95% # Class of executed instruction
system.cpu0.op_class::FloatMemRead                  4     19.05%    100.00% # Class of executed instruction
system.cpu0.op_class::FloatMemWrite                 0      0.00%    100.00% # Class of executed instruction
system.cpu0.op_class::IprAccess                     0      0.00%    100.00% # Class of executed instruction
system.cpu0.op_class::InstPrefetch                  0      0.00%    100.00% # Class of executed instruction
system.cpu0.op_class::total                        21                       # Class of executed instruction
system.cpu1.dtb.walker.pwrStateResidencyTicks::UNDEFINED 2424276388000                       # Cumulative time (in ticks) in various power states
system.cpu1.dtb.rdAccesses                          3                       # TLB accesses on read requests
system.cpu1.dtb.wrAccesses                          2                       # TLB accesses on write requests
system.cpu1.dtb.rdMisses                            0                       # TLB misses on read requests
system.cpu1.dtb.wrMisses                            0                       # TLB misses on write requests
system.cpu1.apic_clk_domain.clock                8000                       # Clock period in ticks
system.cpu1.interrupts.pwrStateResidencyTicks::UNDEFINED 2424276388000                       # Cumulative time (in ticks) in various power states
system.cpu1.itb.walker.pwrStateResidencyTicks::UNDEFINED 2424276388000                       # Cumulative time (in ticks) in various power states
system.cpu1.itb.rdAccesses                          0                       # TLB accesses on read requests
system.cpu1.itb.wrAccesses                          9                       # TLB accesses on write requests
system.cpu1.itb.rdMisses                            0                       # TLB misses on read requests
system.cpu1.itb.wrMisses                            0                       # TLB misses on write requests
system.cpu1.numPwrStateTransitions                  1                       # Number of power state transitions
system.cpu1.pwrStateResidencyTicks::ON          11000                       # Cumulative time (in ticks) in various power states
system.cpu1.pwrStateResidencyTicks::OFF   59285572000                       # Cumulative time (in ticks) in various power states
system.cpu1.numCycles                              22                       # number of cpu cycles simulated
system.cpu1.numWorkItemsStarted                     0                       # number of work items this cpu started
[...]
system.ruby.L1Cache_Controller.I.L1_Replacement |         414     43.86%     43.86% |         530     56.14%    100.00%
system.ruby.L1Cache_Controller.I.L1_Replacement::total          944                      
system.ruby.L1Cache_Controller.S.Load    |     1023661     85.79%     85.79% |      169556     14.21%    100.00%
system.ruby.L1Cache_Controller.S.Load::total      1193217                      
system.ruby.L1Cache_Controller.S.Ifetch  |    26196739     94.24%     94.24% |     1601514      5.76%    100.00%
system.ruby.L1Cache_Controller.S.Ifetch::total     27798253                      
system.ruby.L1Cache_Controller.S.Store   |         674     51.14%     51.14% |         644     48.86%    100.00%
system.ruby.L1Cache_Controller.S.Store::total         1318                      
system.ruby.L1Cache_Controller.S.Inv     |         520     45.18%     45.18% |         631     54.82%    100.00%
system.ruby.L1Cache_Controller.S.Inv::total         1151                      
system.ruby.L1Cache_Controller.S.L1_Replacement |       54321     35.06%     35.06% |      100622     64.94%    100.00%
system.ruby.L1Cache_Controller.S.L1_Replacement::total       154943                      
system.ruby.L1Cache_Controller.E.Load    |    17953220     94.37%     94.37% |     1070198      5.63%    100.00%
system.ruby.L1Cache_Controller.E.Load::total     19023418                      
system.ruby.L1Cache_Controller.E.Store   |        6801     28.49%     28.49% |       17067     71.51%    100.00%
system.ruby.L1Cache_Controller.E.Store::total        23868                      
system.ruby.L1Cache_Controller.E.L1_Replacement |       41799     49.27%     49.27% |       43044     50.73%    100.00%
system.ruby.L1Cache_Controller.E.L1_Replacement::total        84843                      
system.ruby.L1Cache_Controller.E.Fwd_GETX |           6     13.04%     13.04% |          40     86.96%    100.00%
system.ruby.L1Cache_Controller.E.Fwd_GETX::total           46                      
system.ruby.L1Cache_Controller.E.Fwd_GETS |         517     53.52%     53.52% |         449     46.48%    100.00%
system.ruby.L1Cache_Controller.E.Fwd_GETS::total          966                      
system.ruby.L1Cache_Controller.E.Fwd_GET_INSTR |           0      0.00%      0.00% |           2    100.00%    100.00%
system.ruby.L1Cache_Controller.E.Fwd_GET_INSTR::total            2                      
system.ruby.L1Cache_Controller.M.Load    |    13191184     92.03%     92.03% |     1142429      7.97%    100.00%
system.ruby.L1Cache_Controller.M.Load::total     14333613                      
system.ruby.L1Cache_Controller.M.Store   |     3003744     74.04%     74.04% |     1053233     25.96%    100.00%
system.ruby.L1Cache_Controller.M.Store::total      4056977                      
system.ruby.L1Cache_Controller.M.L1_Replacement |       29375     37.38%     37.38% |       49202     62.62%    100.00%
system.ruby.L1Cache_Controller.M.L1_Replacement::total        78577                      
system.ruby.L1Cache_Controller.M.Fwd_GETX |          81     54.00%     54.00% |          69     46.00%    100.00%
system.ruby.L1Cache_Controller.M.Fwd_GETX::total          150                      
system.ruby.L1Cache_Controller.M.Fwd_GETS |         571     49.74%     49.74% |         577     50.26%    100.00%
system.ruby.L1Cache_Controller.M.Fwd_GETS::total         1148                      
system.ruby.L1Cache_Controller.IS.L1_Replacement |           1     50.00%     50.00% |           1     50.00%    100.00%
system.ruby.L1Cache_Controller.IS.L1_Replacement::total            2                      
system.ruby.L1Cache_Controller.IS.Data_Exclusive |       49389     44.84%     44.84% |       60753     55.16%    100.00%
system.ruby.L1Cache_Controller.IS.Data_Exclusive::total       110142                      
system.ruby.L1Cache_Controller.IS.DataS_fromL1 |        1028     48.58%     48.58% |        1088     51.42%    100.00%
system.ruby.L1Cache_Controller.IS.DataS_fromL1::total         2116                      
system.ruby.L1Cache_Controller.IS.Data_all_Acks |       53916     34.94%     34.94% |      100413     65.06%    100.00%
system.ruby.L1Cache_Controller.IS.Data_all_Acks::total       154329                      
system.ruby.L1Cache_Controller.IS.Data_all_Acksp |           0      0.00%      0.00% |      823700    100.00%    100.00%
system.ruby.L1Cache_Controller.IS.Data_all_Acksp::total       823700                      
system.ruby.L1Cache_Controller.IM.Data   |          42     56.76%     56.76% |          32     43.24%    100.00%
system.ruby.L1Cache_Controller.IM.Data::total           74                      
system.ruby.L1Cache_Controller.IM.Data_all_Acks |       22752     41.30%     41.30% |       32340     58.70%    100.00%
system.ruby.L1Cache_Controller.IM.Data_all_Acks::total        55092                      
system.ruby.L1Cache_Controller.IM.Data_all_Acksp |           0      0.00%      0.00% |          60    100.00%    100.00%
system.ruby.L1Cache_Controller.IM.Data_all_Acksp::total           60                      
system.ruby.L1Cache_Controller.SM.Inv    |           1     50.00%     50.00% |           1     50.00%    100.00%
system.ruby.L1Cache_Controller.SM.Inv::total            2                      
system.ruby.L1Cache_Controller.SM.Ack    |         673     51.14%     51.14% |         643     48.86%    100.00%
system.ruby.L1Cache_Controller.SM.Ack::total         1316                      
system.ruby.L1Cache_Controller.SM.Ack_all |         715     51.44%     51.44% |         675     48.56%    100.00%
system.ruby.L1Cache_Controller.SM.Ack_all::total         1390                      
system.ruby.L1Cache_Controller.M_I.Load  |          12     29.27%     29.27% |          29     70.73%    100.00%
system.ruby.L1Cache_Controller.M_I.Load::total           41                      
system.ruby.L1Cache_Controller.M_I.Ifetch |           2     33.33%     33.33% |           4     66.67%    100.00%
system.ruby.L1Cache_Controller.M_I.Ifetch::total            6                      
system.ruby.L1Cache_Controller.M_I.Store |           1     50.00%     50.00% |           1     50.00%    100.00%
system.ruby.L1Cache_Controller.M_I.Store::total            2                      
system.ruby.L1Cache_Controller.M_I.WB_Ack |       71174     43.55%     43.55% |       92246     56.45%    100.00%
system.ruby.L1Cache_Controller.M_I.WB_Ack::total       163420                      
system.ruby.L2Cache_Controller.L1_GET_INSTR |       68208     49.83%     49.83% |       68681     50.17%    100.00%
system.ruby.L2Cache_Controller.L1_GET_INSTR::total       136889                      
system.ruby.L2Cache_Controller.L1_GETS   |       63246     48.76%     48.76% |       66470     51.24%    100.00%
system.ruby.L2Cache_Controller.L1_GETS::total       129716                      
system.ruby.L2Cache_Controller.L1_GETSP  |      823690    100.00%    100.00% |          11      0.00%    100.00%
system.ruby.L2Cache_Controller.L1_GETSP::total       823701                      
system.ruby.L2Cache_Controller.L1_GETX   |       27638     50.10%     50.10% |       27528     49.90%    100.00%
system.ruby.L2Cache_Controller.L1_GETX::total        55166                      
system.ruby.L2Cache_Controller.L1_GETXP  |          56     50.00%     50.00% |          56     50.00%    100.00%
system.ruby.L2Cache_Controller.L1_GETXP::total          112                      
system.ruby.L2Cache_Controller.L1_UPGRADE |         664     50.38%     50.38% |         654     49.62%    100.00%
system.ruby.L2Cache_Controller.L1_UPGRADE::total         1318                      
system.ruby.L2Cache_Controller.L1_PUTX   |       78403     47.98%     47.98% |       85017     52.02%    100.00%
system.ruby.L2Cache_Controller.L1_PUTX::total       163420                      
system.ruby.L2Cache_Controller.L2_Replacement |          18     64.29%     64.29% |          10     35.71%    100.00%
system.ruby.L2Cache_Controller.L2_Replacement::total           28                      
system.ruby.L2Cache_Controller.L2_Replacement_clean |          25     62.50%     62.50% |          15     37.50%    100.00%
system.ruby.L2Cache_Controller.L2_Replacement_clean::total           40                      
system.ruby.L2Cache_Controller.Mem_Data  |      845104     97.55%     97.55% |       21209      2.45%    100.00%
system.ruby.L2Cache_Controller.Mem_Data::total       866313                      
system.ruby.L2Cache_Controller.Mem_Datap |      823719    100.00%    100.00% |          41      0.00%    100.00%
system.ruby.L2Cache_Controller.Mem_Datap::total       823760                      
system.ruby.L2Cache_Controller.Mem_Ack   |          43     63.24%     63.24% |          25     36.76%    100.00%
system.ruby.L2Cache_Controller.Mem_Ack::total           68                      
system.ruby.L2Cache_Controller.Mem_Ackp  |          30     50.00%     50.00% |          30     50.00%    100.00%
system.ruby.L2Cache_Controller.Mem_Ackp::total           60                      
system.ruby.L2Cache_Controller.WB_Data   |         565     49.22%     49.22% |         583     50.78%    100.00%
system.ruby.L2Cache_Controller.WB_Data::total         1148                      
system.ruby.L2Cache_Controller.WB_Data_clean |         474     48.97%     48.97% |         494     51.03%    100.00%
system.ruby.L2Cache_Controller.WB_Data_clean::total          968                      
system.ruby.L2Cache_Controller.Ack       |           0      0.00%      0.00% |           2    100.00%    100.00%
system.ruby.L2Cache_Controller.Ack::total            2                      
system.ruby.L2Cache_Controller.Ack_all   |          15     68.18%     68.18% |           7     31.82%    100.00%
system.ruby.L2Cache_Controller.Ack_all::total           22                      
system.ruby.L2Cache_Controller.Unblock   |        1039     49.10%     49.10% |        1077     50.90%    100.00%
system.ruby.L2Cache_Controller.Unblock::total         2116                      
system.ruby.L2Cache_Controller.Exclusive_Unblock |       80009     48.02%     48.02% |       86615     51.98%    100.00%
system.ruby.L2Cache_Controller.Exclusive_Unblock::total       166624                      
system.ruby.L2Cache_Controller.Exclusive_Unblockp |          30     50.00%     50.00% |          30     50.00%    100.00%
system.ruby.L2Cache_Controller.Exclusive_Unblockp::total           60                      
system.ruby.L2Cache_Controller.NP.L1_GET_INSTR |        6075     49.73%     49.73% |        6140     50.27%    100.00%
system.ruby.L2Cache_Controller.NP.L1_GET_INSTR::total        12215                      
system.ruby.L2Cache_Controller.NP.L1_GETS |        7627     51.17%     51.17% |        7278     48.83%    100.00%
system.ruby.L2Cache_Controller.NP.L1_GETS::total        14905                      
system.ruby.L2Cache_Controller.NP.L1_GETSP |      823690    100.00%    100.00% |          11      0.00%    100.00%
system.ruby.L2Cache_Controller.NP.L1_GETSP::total       823701                      
system.ruby.L2Cache_Controller.NP.L1_GETX |        7713     49.78%     49.78% |        7780     50.22%    100.00%
system.ruby.L2Cache_Controller.NP.L1_GETX::total        15493                      
system.ruby.L2Cache_Controller.NP.L1_GETXP |          30     50.00%     50.00% |          30     50.00%    100.00%
system.ruby.L2Cache_Controller.NP.L1_GETXP::total           60                      
system.ruby.L2Cache_Controller.NP.Mem_Data |      823689    100.00%    100.00% |          11      0.00%    100.00%
system.ruby.L2Cache_Controller.NP.Mem_Data::total       823700                      
system.ruby.L2Cache_Controller.SS.L1_GET_INSTR |       62118     49.84%     49.84% |       62526     50.16%    100.00%
system.ruby.L2Cache_Controller.SS.L1_GET_INSTR::total       124644                      
system.ruby.L2Cache_Controller.SS.L1_GETS |       10486     60.13%     60.13% |        6954     39.87%    100.00%
system.ruby.L2Cache_Controller.SS.L1_GETS::total        17440                      
system.ruby.L2Cache_Controller.SS.L1_GETX |          30     39.47%     39.47% |          46     60.53%    100.00%
system.ruby.L2Cache_Controller.SS.L1_GETX::total           76                      
system.ruby.L2Cache_Controller.SS.L1_UPGRADE |         662     50.30%     50.30% |         654     49.70%    100.00%
system.ruby.L2Cache_Controller.SS.L1_UPGRADE::total         1316                      
system.ruby.L2Cache_Controller.SS.L2_Replacement_clean |          15     68.18%     68.18% |           7     31.82%    100.00%
system.ruby.L2Cache_Controller.SS.L2_Replacement_clean::total           22                      
system.ruby.L2Cache_Controller.M.L1_GET_INSTR |           8     44.44%     44.44% |          10     55.56%    100.00%
system.ruby.L2Cache_Controller.M.L1_GET_INSTR::total           18                      
system.ruby.L2Cache_Controller.M.L1_GETS |       44082     46.29%     46.29% |       51156     53.71%    100.00%
system.ruby.L2Cache_Controller.M.L1_GETS::total        95238                      
system.ruby.L2Cache_Controller.M.L1_GETX |       19778     50.20%     50.20% |       19623     49.80%    100.00%
system.ruby.L2Cache_Controller.M.L1_GETX::total        39401                      
system.ruby.L2Cache_Controller.M.L2_Replacement |          18     64.29%     64.29% |          10     35.71%    100.00%
system.ruby.L2Cache_Controller.M.L2_Replacement::total           28                      
system.ruby.L2Cache_Controller.M.L2_Replacement_clean |          10     55.56%     55.56% |           8     44.44%    100.00%
system.ruby.L2Cache_Controller.M.L2_Replacement_clean::total           18                      
system.ruby.L2Cache_Controller.MT.L1_GET_INSTR |           2    100.00%    100.00% |           0      0.00%    100.00%
system.ruby.L2Cache_Controller.MT.L1_GET_INSTR::total            2                      
system.ruby.L2Cache_Controller.MT.L1_GETS |        1037     49.05%     49.05% |        1077     50.95%    100.00%
system.ruby.L2Cache_Controller.MT.L1_GETS::total         2114                      
system.ruby.L2Cache_Controller.MT.L1_GETX |         117     59.69%     59.69% |          79     40.31%    100.00%
system.ruby.L2Cache_Controller.MT.L1_GETX::total          196                      
system.ruby.L2Cache_Controller.MT.L1_PUTX |       78403     47.98%     47.98% |       85017     52.02%    100.00%
system.ruby.L2Cache_Controller.MT.L1_PUTX::total       163420                      
system.ruby.L2Cache_Controller.M_I.L1_GETXP |          26     50.00%     50.00% |          26     50.00%    100.00%
system.ruby.L2Cache_Controller.M_I.L1_GETXP::total           52                      
system.ruby.L2Cache_Controller.M_I.Mem_Ack |          43     63.24%     63.24% |          25     36.76%    100.00%
system.ruby.L2Cache_Controller.M_I.Mem_Ack::total           68                      
system.ruby.L2Cache_Controller.M_I.Mem_Ackp |          30     50.00%     50.00% |          30     50.00%    100.00%
system.ruby.L2Cache_Controller.M_I.Mem_Ackp::total           60                      
system.ruby.L2Cache_Controller.I_I.Ack   |           0      0.00%      0.00% |           2    100.00%    100.00%
system.ruby.L2Cache_Controller.I_I.Ack::total            2                      
system.ruby.L2Cache_Controller.I_I.Ack_all |          15     68.18%     68.18% |           7     31.82%    100.00%
system.ruby.L2Cache_Controller.I_I.Ack_all::total           22                      
system.ruby.L2Cache_Controller.ISS.L1_GETS |           0      0.00%      0.00% |           1    100.00%    100.00%
system.ruby.L2Cache_Controller.ISS.L1_GETS::total            1                      
system.ruby.L2Cache_Controller.ISS.Mem_Data |        7627     51.17%     51.17% |        7277     48.83%    100.00%
system.ruby.L2Cache_Controller.ISS.Mem_Data::total        14904                      
system.ruby.L2Cache_Controller.IS.L1_GET_INSTR |           5     50.00%     50.00% |           5     50.00%    100.00%
system.ruby.L2Cache_Controller.IS.L1_GET_INSTR::total           10                      
system.ruby.L2Cache_Controller.IS.Mem_Data |        6075     49.73%     49.73% |        6141     50.27%    100.00%
system.ruby.L2Cache_Controller.IS.Mem_Data::total        12216                      
system.ruby.L2Cache_Controller.IS.Mem_Datap |      823689    100.00%    100.00% |          11      0.00%    100.00%
system.ruby.L2Cache_Controller.IS.Mem_Datap::total       823700                      
system.ruby.L2Cache_Controller.IM.Mem_Data |        7713     49.78%     49.78% |        7780     50.22%    100.00%
system.ruby.L2Cache_Controller.IM.Mem_Data::total        15493                      
system.ruby.L2Cache_Controller.IM.Mem_Datap |          30     50.00%     50.00% |          30     50.00%    100.00%
system.ruby.L2Cache_Controller.IM.Mem_Datap::total           60                      
system.ruby.L2Cache_Controller.SS_MB.L1_GETS |          10    100.00%    100.00% |           0      0.00%    100.00%
system.ruby.L2Cache_Controller.SS_MB.L1_GETS::total           10                      
system.ruby.L2Cache_Controller.SS_MB.L1_UPGRADE |           2    100.00%    100.00% |           0      0.00%    100.00%
system.ruby.L2Cache_Controller.SS_MB.L1_UPGRADE::total            2                      
system.ruby.L2Cache_Controller.SS_MB.Exclusive_Unblock |         692     49.71%     49.71% |         700     50.29%    100.00%
system.ruby.L2Cache_Controller.SS_MB.Exclusive_Unblock::total         1392                      
system.ruby.L2Cache_Controller.MT_MB.L1_GETS |           4     50.00%     50.00% |           4     50.00%    100.00%
system.ruby.L2Cache_Controller.MT_MB.L1_GETS::total            8                      
system.ruby.L2Cache_Controller.MT_MB.Exclusive_Unblock |       79317     48.00%     48.00% |       85915     52.00%    100.00%
system.ruby.L2Cache_Controller.MT_MB.Exclusive_Unblock::total       165232                      
system.ruby.L2Cache_Controller.MT_MB.Exclusive_Unblockp |          30     50.00%     50.00% |          30     50.00%    100.00%
system.ruby.L2Cache_Controller.MT_MB.Exclusive_Unblockp::total           60                      
system.ruby.L2Cache_Controller.MT_IIB.WB_Data |         563     49.17%     49.17% |         582     50.83%    100.00%
system.ruby.L2Cache_Controller.MT_IIB.WB_Data::total         1145                      
system.ruby.L2Cache_Controller.MT_IIB.WB_Data_clean |         473     49.12%     49.12% |         490     50.88%    100.00%
system.ruby.L2Cache_Controller.MT_IIB.WB_Data_clean::total          963                      
system.ruby.L2Cache_Controller.MT_IIB.Unblock |           3     37.50%     37.50% |           5     62.50%    100.00%
system.ruby.L2Cache_Controller.MT_IIB.Unblock::total            8                      
system.ruby.L2Cache_Controller.MT_IB.WB_Data |           2     66.67%     66.67% |           1     33.33%    100.00%
system.ruby.L2Cache_Controller.MT_IB.WB_Data::total            3                      
system.ruby.L2Cache_Controller.MT_IB.WB_Data_clean |           1     20.00%     20.00% |           4     80.00%    100.00%
system.ruby.L2Cache_Controller.MT_IB.WB_Data_clean::total            5                      
system.ruby.L2Cache_Controller.MT_SB.Unblock |        1036     49.15%     49.15% |        1072     50.85%    100.00%
system.ruby.L2Cache_Controller.MT_SB.Unblock::total         2108                      
system.switch_cpus0.kern.inst.arm                   0                       # number of arm instructions executed
system.switch_cpus0.kern.inst.quiesce               0                       # number of quiesce instructions executed
system.switch_cpus1.kern.inst.arm                   0                       # number of arm instructions executed
system.switch_cpus1.kern.inst.quiesce               0                       # number of quiesce instructions executed

---------- End Simulation Statistics   ----------
