
---------- Begin Simulation Statistics ----------
sim_seconds                                  0.059291                       # Number of seconds simulated
sim_ticks                                 59290733500                       # Number of ticks simulated
final_tick                               2424281538500                       # Number of ticks from beginning of simulation (restored from checkpoints and never reset)
sim_freq                                 1000000000000                       # Frequency of simulated ticks
host_inst_rate                                  70068                       # Simulator instruction rate (inst/s)
host_op_rate                                   177900                       # Simulator op (including micro ops) rate (op/s)
host_tick_rate                               37456963                       # Simulator tick rate (ticks/s)
host_mem_usage                                3585768                       # Number of bytes of host memory used
host_seconds                                  1582.90                       # Real time elapsed on the host
sim_insts                                   110910304                       # Number of instructions simulated
sim_ops                                     281599140                       # Number of ops (including micro ops) simulated
system.voltage_domain.voltage                       1                       # Voltage in Volts
system.clk_domain.clock                          1000                       # Clock period in ticks
system.mem_ctrls0.pwrStateResidencyTicks::UNDEFINED 2424281538500                       # Cumulative time (in ticks) in various power states
system.mem_ctrls0.bytes_read::.cpu0.inst           64                       # Number of bytes read from this memory
system.mem_ctrls0.bytes_read::.cpu0.data           16                       # Number of bytes read from this memory
system.mem_ctrls0.bytes_read::.cpu1.inst           72                       # Number of bytes read from this memory
system.mem_ctrls0.bytes_read::.cpu1.data           24                       # Number of bytes read from this memory
system.mem_ctrls0.bytes_read::.ruby.dir_cntrl0      1368128                       # Number of bytes read from this memory
system.mem_ctrls0.bytes_read::total           1368304                       # Number of bytes read from this memory
system.mem_ctrls0.bytes_inst_read::.cpu0.inst           64                       # Number of instructions bytes read from this memory
system.mem_ctrls0.bytes_inst_read::.cpu1.inst           72                       # Number of instructions bytes read from this memory
system.mem_ctrls0.bytes_inst_read::total          136                       # Number of instructions bytes read from this memory
system.mem_ctrls0.bytes_written::.cpu1.data           16                       # Number of bytes written to this memory
system.mem_ctrls0.bytes_written::.ruby.dir_cntrl0         1216                       # Number of bytes written to this memory
system.mem_ctrls0.bytes_written::total           1232                       # Number of bytes written to this memory
system.mem_ctrls0.num_reads::.cpu0.inst             8                       # Number of read requests responded to by this memory
system.mem_ctrls0.num_reads::.cpu0.data             2                       # Number of read requests responded to by this memory
system.mem_ctrls0.num_reads::.cpu1.inst             9                       # Number of read requests responded to by this memory
system.mem_ctrls0.num_reads::.cpu1.data             3                       # Number of read requests responded to by this memory
system.mem_ctrls0.num_reads::.ruby.dir_cntrl0        21377                       # Number of read requests responded to by this memory
system.mem_ctrls0.num_reads::total              21399                       # Number of read requests responded to by this memory
system.mem_ctrls0.num_writes::.cpu1.data            2                       # Number of write requests responded to by this memory
system.mem_ctrls0.num_writes::.ruby.dir_cntrl0           19                       # Number of write requests responded to by this memory
system.mem_ctrls0.num_writes::total                21                       # Number of write requests responded to by this memory
system.mem_ctrls0.bw_read::.cpu0.inst            1079                       # Total read bandwidth from this memory (bytes/s)
system.mem_ctrls0.bw_read::.cpu0.data             270                       # Total read bandwidth from this memory (bytes/s)
system.mem_ctrls0.bw_read::.cpu1.inst            1214                       # Total read bandwidth from this memory (bytes/s)
system.mem_ctrls0.bw_read::.cpu1.data             405                       # Total read bandwidth from this memory (bytes/s)
system.mem_ctrls0.bw_read::.ruby.dir_cntrl0     23074904                       # Total read bandwidth from this memory (bytes/s)
system.mem_ctrls0.bw_read::total             23077873                       # Total read bandwidth from this memory (bytes/s)
system.mem_ctrls0.bw_inst_read::.cpu0.inst         1079                       # Instruction read bandwidth from this memory (bytes/s)
system.mem_ctrls0.bw_inst_read::.cpu1.inst         1214                       # Instruction read bandwidth from this memory (bytes/s)
system.mem_ctrls0.bw_inst_read::total            2294                       # Instruction read bandwidth from this memory (bytes/s)
system.mem_ctrls0.bw_write::.cpu1.data            270                       # Write bandwidth from this memory (bytes/s)
system.mem_ctrls0.bw_write::.ruby.dir_cntrl0        20509                       # Write bandwidth from this memory (bytes/s)
system.mem_ctrls0.bw_write::total               20779                       # Write bandwidth from this memory (bytes/s)
system.mem_ctrls0.bw_total::.cpu0.inst           1079                       # Total bandwidth to/from this memory (bytes/s)
system.mem_ctrls0.bw_total::.cpu0.data            270                       # Total bandwidth to/from this memory (bytes/s)
system.mem_ctrls0.bw_total::.cpu1.inst           1214                       # Total bandwidth to/from this memory (bytes/s)
system.mem_ctrls0.bw_total::.cpu1.data            675                       # Total bandwidth to/from this memory (bytes/s)
system.mem_ctrls0.bw_total::.ruby.dir_cntrl0     23095413                       # Total bandwidth to/from this memory (bytes/s)
system.mem_ctrls0.bw_total::total            23098652                       # Total bandwidth to/from this memory (bytes/s)
system.mem_ctrls0.avgPriority_.ruby.dir_cntrl0::samples     21396.00                       # Average QoS priority value for accepted requests
system.mem_ctrls0.priorityMinLatency     0.000000018750                       # per QoS priority minimum request to response latency (s)
system.mem_ctrls0.priorityMaxLatency     0.000001103750                       # per QoS priority maximum request to response latency (s)
system.mem_ctrls0.numReadWriteTurnArounds            0                       # Number of turnarounds from READ to WRITE
system.mem_ctrls0.numWriteReadTurnArounds            0                       # Number of turnarounds from WRITE to READ
system.mem_ctrls0.numStayReadState              43413                       # Number of times bus staying in READ state
system.mem_ctrls0.numStayWriteState                 0                       # Number of times bus staying in WRITE state
system.mem_ctrls0.readReqs                      21377                       # Number of read requests accepted
system.mem_ctrls0.writeReqs                        19                       # Number of write requests accepted
system.mem_ctrls0.readBursts                    21377                       # Number of DRAM read bursts, including those serviced by the write queue
system.mem_ctrls0.writeBursts                      19                       # Number of DRAM write bursts, including those merged in the write queue
system.mem_ctrls0.bytesReadDRAM               1368128                       # Total number of bytes read from DRAM
system.mem_ctrls0.bytesReadWrQ                      0                       # Total number of bytes read from write queue
system.mem_ctrls0.bytesWritten                      0                       # Total number of bytes written to DRAM
system.mem_ctrls0.bytesReadSys                1368128                       # Total read bytes from the system interface side
system.mem_ctrls0.bytesWrittenSys                1216                       # Total written bytes from the system interface side
system.mem_ctrls0.servicedByWrQ                     0                       # Number of DRAM read bursts serviced by the write queue
system.mem_ctrls0.mergedWrBursts                    0                       # Number of DRAM write bursts merged with an existing one
system.mem_ctrls0.neitherReadNorWriteReqs            0                       # Number of requests that are neither read nor write
system.mem_ctrls0.perBankRdBursts::0             1387                       # Per bank write bursts
system.mem_ctrls0.perBankRdBursts::1             1552                       # Per bank write bursts
system.mem_ctrls0.perBankRdBursts::2             1219                       # Per bank write bursts
system.mem_ctrls0.perBankRdBursts::3             1444                       # Per bank write bursts
system.mem_ctrls0.perBankRdBursts::4             1479                       # Per bank write bursts
system.mem_ctrls0.perBankRdBursts::5             1467                       # Per bank write bursts
system.mem_ctrls0.perBankRdBursts::6             1379                       # Per bank write bursts
system.mem_ctrls0.perBankRdBursts::7             1390                       # Per bank write bursts
system.mem_ctrls0.perBankRdBursts::8             1356                       # Per bank write bursts
system.mem_ctrls0.perBankRdBursts::9             1358                       # Per bank write bursts
system.mem_ctrls0.perBankRdBursts::10            1187                       # Per bank write bursts
system.mem_ctrls0.perBankRdBursts::11             993                       # Per bank write bursts
system.mem_ctrls0.perBankRdBursts::12            1589                       # Per bank write bursts
system.mem_ctrls0.perBankRdBursts::13            1314                       # Per bank write bursts
system.mem_ctrls0.perBankRdBursts::14            1266                       # Per bank write bursts
system.mem_ctrls0.perBankRdBursts::15             997                       # Per bank write bursts
system.mem_ctrls0.perBankWrBursts::0                0                       # Per bank write bursts
system.mem_ctrls0.perBankWrBursts::1                0                       # Per bank write bursts
system.mem_ctrls0.perBankWrBursts::2                0                       # Per bank write bursts
system.mem_ctrls0.perBankWrBursts::3                0                       # Per bank write bursts
system.mem_ctrls0.perBankWrBursts::4                0                       # Per bank write bursts
system.mem_ctrls0.perBankWrBursts::5                0                       # Per bank write bursts
system.mem_ctrls0.perBankWrBursts::6                0                       # Per bank write bursts
system.mem_ctrls0.perBankWrBursts::7                0                       # Per bank write bursts
system.mem_ctrls0.perBankWrBursts::8                0                       # Per bank write bursts
system.mem_ctrls0.perBankWrBursts::9                0                       # Per bank write bursts
system.mem_ctrls0.perBankWrBursts::10               0                       # Per bank write bursts
system.mem_ctrls0.perBankWrBursts::11               0                       # Per bank write bursts
system.mem_ctrls0.perBankWrBursts::12               0                       # Per bank write bursts
system.mem_ctrls0.perBankWrBursts::13               0                       # Per bank write bursts
system.mem_ctrls0.perBankWrBursts::14               0                       # Per bank write bursts
system.mem_ctrls0.perBankWrBursts::15               0                       # Per bank write bursts
system.mem_ctrls0.numRdRetry                        0                       # Number of times read queue was full causing retry
system.mem_ctrls0.numWrRetry                        0                       # Number of times write queue was full causing retry
system.mem_ctrls0.totGap                  52265075500                       # Total gap between requests
system.mem_ctrls0.readPktSize::0                    0                       # Read request sizes (log2)
system.mem_ctrls0.readPktSize::1                    0                       # Read request sizes (log2)
system.mem_ctrls0.readPktSize::2                    0                       # Read request sizes (log2)
system.mem_ctrls0.readPktSize::3                    0                       # Read request sizes (log2)
system.mem_ctrls0.readPktSize::4                    0                       # Read request sizes (log2)
system.mem_ctrls0.readPktSize::5                    0                       # Read request sizes (log2)
system.mem_ctrls0.readPktSize::6                21377                       # Read request sizes (log2)
system.mem_ctrls0.writePktSize::0                   0                       # Write request sizes (log2)
system.mem_ctrls0.writePktSize::1                   0                       # Write request sizes (log2)
system.mem_ctrls0.writePktSize::2                   0                       # Write request sizes (log2)
system.mem_ctrls0.writePktSize::3                   0                       # Write request sizes (log2)
system.mem_ctrls0.writePktSize::4                   0                       # Write request sizes (log2)
system.mem_ctrls0.writePktSize::5                   0                       # Write request sizes (log2)
system.mem_ctrls0.writePktSize::6                  19                       # Write request sizes (log2)
system.mem_ctrls0.rdQLenPdf::0                  17306                       # What read queue length does an incoming req see
system.mem_ctrls0.rdQLenPdf::1                   3271                       # What read queue length does an incoming req see
system.mem_ctrls0.rdQLenPdf::2                    643                       # What read queue length does an incoming req see
system.mem_ctrls0.rdQLenPdf::3                    118                       # What read queue length does an incoming req see
system.mem_ctrls0.rdQLenPdf::4                     30                       # What read queue length does an incoming req see
system.mem_ctrls0.rdQLenPdf::5                      6                       # What read queue length does an incoming req see
system.mem_ctrls0.rdQLenPdf::6                      1                       # What read queue length does an incoming req see
system.mem_ctrls0.rdQLenPdf::7                      2                       # What read queue length does an incoming req see
system.mem_ctrls0.rdQLenPdf::8                      0                       # What read queue length does an incoming req see
system.mem_ctrls0.rdQLenPdf::9                      0                       # What read queue length does an incoming req see
system.mem_ctrls0.rdQLenPdf::10                     0                       # What read queue length does an incoming req see
system.mem_ctrls0.rdQLenPdf::11                     0                       # What read queue length does an incoming req see
system.mem_ctrls0.rdQLenPdf::12                     0                       # What read queue length does an incoming req see
system.mem_ctrls0.rdQLenPdf::13                     0                       # What read queue length does an incoming req see
system.mem_ctrls0.rdQLenPdf::14                     0                       # What read queue length does an incoming req see
system.mem_ctrls0.rdQLenPdf::15                     0                       # What read queue length does an incoming req see
system.mem_ctrls0.rdQLenPdf::16                     0                       # What read queue length does an incoming req see
system.mem_ctrls0.rdQLenPdf::17                     0                       # What read queue length does an incoming req see
system.mem_ctrls0.rdQLenPdf::18                     0                       # What read queue length does an incoming req see
system.mem_ctrls0.rdQLenPdf::19                     0                       # What read queue length does an incoming req see
system.mem_ctrls0.rdQLenPdf::20                     0                       # What read queue length does an incoming req see
system.mem_ctrls0.rdQLenPdf::21                     0                       # What read queue length does an incoming req see
system.mem_ctrls0.rdQLenPdf::22                     0                       # What read queue length does an incoming req see
system.mem_ctrls0.rdQLenPdf::23                     0                       # What read queue length does an incoming req see
system.mem_ctrls0.rdQLenPdf::24                     0                       # What read queue length does an incoming req see
system.mem_ctrls0.rdQLenPdf::25                     0                       # What read queue length does an incoming req see
system.mem_ctrls0.rdQLenPdf::26                     0                       # What read queue length does an incoming req see
system.mem_ctrls0.rdQLenPdf::27                     0                       # What read queue length does an incoming req see
system.mem_ctrls0.rdQLenPdf::28                     0                       # What read queue length does an incoming req see
system.mem_ctrls0.rdQLenPdf::29                     0                       # What read queue length does an incoming req see
system.mem_ctrls0.rdQLenPdf::30                     0                       # What read queue length does an incoming req see
system.mem_ctrls0.rdQLenPdf::31                     0                       # What read queue length does an incoming req see
system.mem_ctrls0.wrQLenPdf::0                      1                       # What write queue length does an incoming req see
system.mem_ctrls0.wrQLenPdf::1                      1                       # What write queue length does an incoming req see
system.mem_ctrls0.wrQLenPdf::2                      1                       # What write queue length does an incoming req see
system.mem_ctrls0.wrQLenPdf::3                      1                       # What write queue length does an incoming req see
system.mem_ctrls0.wrQLenPdf::4                      1                       # What write queue length does an incoming req see
system.mem_ctrls0.wrQLenPdf::5                      1                       # What write queue length does an incoming req see
system.mem_ctrls0.wrQLenPdf::6                      1                       # What write queue length does an incoming req see
system.mem_ctrls0.wrQLenPdf::7                      1                       # What write queue length does an incoming req see
system.mem_ctrls0.wrQLenPdf::8                      1                       # What write queue length does an incoming req see
system.mem_ctrls0.wrQLenPdf::9                      1                       # What write queue length does an incoming req see
system.mem_ctrls0.wrQLenPdf::10                     1                       # What write queue length does an incoming req see
system.mem_ctrls0.wrQLenPdf::11                     1                       # What write queue length does an incoming req see
system.mem_ctrls0.wrQLenPdf::12                     1                       # What write queue length does an incoming req see
system.mem_ctrls0.wrQLenPdf::13                     1                       # What write queue length does an incoming req see
system.mem_ctrls0.wrQLenPdf::14                     1                       # What write queue length does an incoming req see
system.mem_ctrls0.wrQLenPdf::15                     1                       # What write queue length does an incoming req see
system.mem_ctrls0.wrQLenPdf::16                     1                       # What write queue length does an incoming req see
system.mem_ctrls0.wrQLenPdf::17                     1                       # What write queue length does an incoming req see
system.mem_ctrls0.wrQLenPdf::18                     1                       # What write queue length does an incoming req see
system.mem_ctrls0.wrQLenPdf::19                     0                       # What write queue length does an incoming req see
system.mem_ctrls0.wrQLenPdf::20                     0                       # What write queue length does an incoming req see
system.mem_ctrls0.wrQLenPdf::21                     0                       # What write queue length does an incoming req see
system.mem_ctrls0.wrQLenPdf::22                     0                       # What write queue length does an incoming req see
system.mem_ctrls0.wrQLenPdf::23                     0                       # What write queue length does an incoming req see
system.mem_ctrls0.wrQLenPdf::24                     0                       # What write queue length does an incoming req see
system.mem_ctrls0.wrQLenPdf::25                     0                       # What write queue length does an incoming req see
system.mem_ctrls0.wrQLenPdf::26                     0                       # What write queue length does an incoming req see
system.mem_ctrls0.wrQLenPdf::27                     0                       # What write queue length does an incoming req see
system.mem_ctrls0.wrQLenPdf::28                     0                       # What write queue length does an incoming req see
system.mem_ctrls0.wrQLenPdf::29                     0                       # What write queue length does an incoming req see
system.mem_ctrls0.wrQLenPdf::30                     0                       # What write queue length does an incoming req see
system.mem_ctrls0.wrQLenPdf::31                     0                       # What write queue length does an incoming req see
system.mem_ctrls0.wrQLenPdf::32                     0                       # What write queue length does an incoming req see
system.mem_ctrls0.wrQLenPdf::33                     0                       # What write queue length does an incoming req see
system.mem_ctrls0.wrQLenPdf::34                     0                       # What write queue length does an incoming req see
system.mem_ctrls0.wrQLenPdf::35                     0                       # What write queue length does an incoming req see
system.mem_ctrls0.wrQLenPdf::36                     0                       # What write queue length does an incoming req see
system.mem_ctrls0.wrQLenPdf::37                     0                       # What write queue length does an incoming req see
system.mem_ctrls0.wrQLenPdf::38                     0                       # What write queue length does an incoming req see
system.mem_ctrls0.wrQLenPdf::39                     0                       # What write queue length does an incoming req see
system.mem_ctrls0.wrQLenPdf::40                     0                       # What write queue length does an incoming req see
system.mem_ctrls0.wrQLenPdf::41                     0                       # What write queue length does an incoming req see
system.mem_ctrls0.wrQLenPdf::42                     0                       # What write queue length does an incoming req see
system.mem_ctrls0.wrQLenPdf::43                     0                       # What write queue length does an incoming req see
system.mem_ctrls0.wrQLenPdf::44                     0                       # What write queue length does an incoming req see
system.mem_ctrls0.wrQLenPdf::45                     0                       # What write queue length does an incoming req see
system.mem_ctrls0.wrQLenPdf::46                     0                       # What write queue length does an incoming req see
system.mem_ctrls0.wrQLenPdf::47                     0                       # What write queue length does an incoming req see
system.mem_ctrls0.wrQLenPdf::48                     0                       # What write queue length does an incoming req see
system.mem_ctrls0.wrQLenPdf::49                     0                       # What write queue length does an incoming req see
system.mem_ctrls0.wrQLenPdf::50                     0                       # What write queue length does an incoming req see
system.mem_ctrls0.wrQLenPdf::51                     0                       # What write queue length does an incoming req see
system.mem_ctrls0.wrQLenPdf::52                     0                       # What write queue length does an incoming req see
system.mem_ctrls0.wrQLenPdf::53                     0                       # What write queue length does an incoming req see
system.mem_ctrls0.wrQLenPdf::54                     0                       # What write queue length does an incoming req see
system.mem_ctrls0.wrQLenPdf::55                     0                       # What write queue length does an incoming req see
system.mem_ctrls0.wrQLenPdf::56                     0                       # What write queue length does an incoming req see
system.mem_ctrls0.wrQLenPdf::57                     0                       # What write queue length does an incoming req see
system.mem_ctrls0.wrQLenPdf::58                     0                       # What write queue length does an incoming req see
system.mem_ctrls0.wrQLenPdf::59                     0                       # What write queue length does an incoming req see
system.mem_ctrls0.wrQLenPdf::60                     0                       # What write queue length does an incoming req see
system.mem_ctrls0.wrQLenPdf::61                     0                       # What write queue length does an incoming req see
system.mem_ctrls0.wrQLenPdf::62                     0                       # What write queue length does an incoming req see
system.mem_ctrls0.wrQLenPdf::63                     0                       # What write queue length does an incoming req see
system.mem_ctrls0.bytesPerActivate::samples         7211                       # Bytes accessed per row activation
system.mem_ctrls0.bytesPerActivate::mean   189.727916                       # Bytes accessed per row activation
system.mem_ctrls0.bytesPerActivate::gmean   117.714663                       # Bytes accessed per row activation
system.mem_ctrls0.bytesPerActivate::stdev   246.121657                       # Bytes accessed per row activation
system.mem_ctrls0.bytesPerActivate::0-127         4118     57.11%     57.11% # Bytes accessed per row activation
system.mem_ctrls0.bytesPerActivate::128-255         1616     22.41%     79.52% # Bytes accessed per row activation
system.mem_ctrls0.bytesPerActivate::256-383          532      7.38%     86.90% # Bytes accessed per row activation
system.mem_ctrls0.bytesPerActivate::384-511          212      2.94%     89.83% # Bytes accessed per row activation
system.mem_ctrls0.bytesPerActivate::512-639          148      2.05%     91.89% # Bytes accessed per row activation
system.mem_ctrls0.bytesPerActivate::640-767           89      1.23%     93.12% # Bytes accessed per row activation
system.mem_ctrls0.bytesPerActivate::768-895           65      0.90%     94.02% # Bytes accessed per row activation
system.mem_ctrls0.bytesPerActivate::896-1023           77      1.07%     95.09% # Bytes accessed per row activation
system.mem_ctrls0.bytesPerActivate::1024-1151          354      4.91%    100.00% # Bytes accessed per row activation
system.mem_ctrls0.bytesPerActivate::total         7211                       # Bytes accessed per row activation
system.mem_ctrls0.masterReadBytes::.ruby.dir_cntrl0      1368128                       # Per-master bytes read from memory
system.mem_ctrls0.masterReadRate::.ruby.dir_cntrl0 23074904.276567939669                       # Per-master bytes read from memory rate (Bytes/sec)
system.mem_ctrls0.masterReadAccesses::.ruby.dir_cntrl0        21377                       # Per-master read serviced memory accesses
system.mem_ctrls0.masterWriteAccesses::.ruby.dir_cntrl0           19                       # Per-master write serviced memory accesses
system.mem_ctrls0.masterReadTotalLat::.ruby.dir_cntrl0    874769223                       # Per-master read total memory access latency
system.mem_ctrls0.masterReadAvgLat::.ruby.dir_cntrl0     40921.05                       # Per-master read average memory access latency
system.mem_ctrls0.masterWriteAvgLat::.ruby.dir_cntrl0         0.00                       # Per-master write average memory access latency
system.mem_ctrls0.totQLat                   473950473                       # Total ticks spent queuing
system.mem_ctrls0.totMemAccLat              874769223                       # Total ticks spent from burst creation until serviced by the DRAM
system.mem_ctrls0.totBusLat                 106885000                       # Total ticks spent in databus transfers
system.mem_ctrls0.avgQLat                    22171.05                       # Average queueing delay per DRAM burst
system.mem_ctrls0.avgBusLat                   5000.00                       # Average bus latency per DRAM burst
system.mem_ctrls0.avgMemAccLat               40921.05                       # Average memory access latency per DRAM burst
system.mem_ctrls0.avgRdBW                       23.07                       # Average DRAM read bandwidth in MiByte/s
system.mem_ctrls0.avgWrBW                        0.00                       # Average achieved write bandwidth in MiByte/s
system.mem_ctrls0.avgRdBWSys                    23.07                       # Average system read bandwidth in MiByte/s
system.mem_ctrls0.avgWrBWSys                     0.02                       # Average system write bandwidth in MiByte/s
system.mem_ctrls0.peakBW                     12800.00                       # Theoretical peak bandwidth in MiByte/s
system.mem_ctrls0.busUtil                        0.18                       # Data bus utilization in percentage
system.mem_ctrls0.busUtilRead                    0.18                       # Data bus utilization in percentage for reads
system.mem_ctrls0.busUtilWrite                   0.00                       # Data bus utilization in percentage for writes
system.mem_ctrls0.avgRdQLen                      1.04                       # Average read queue length when enqueuing
system.mem_ctrls0.avgWrQLen                     12.60                       # Average write queue length when enqueuing
system.mem_ctrls0.readRowHits                   14166                       # Number of row buffer hits during reads
system.mem_ctrls0.writeRowHits                      0                       # Number of row buffer hits during writes
system.mem_ctrls0.readRowHitRate                66.27                       # Row buffer hit rate for reads
system.mem_ctrls0.writeRowHitRate                0.00                       # Row buffer hit rate for writes
system.mem_ctrls0.avgGap                   2442749.84                       # Average gap between requests
system.mem_ctrls0.pageHitRate                   66.21                       # Row buffer hit rate, read and write combined
system.mem_ctrls0_0.actEnergy                27239100                       # Energy for activate commands per rank (pJ)
system.mem_ctrls0_0.preEnergy                14477925                       # Energy for precharge commands per rank (pJ)
system.mem_ctrls0_0.readEnergy               80803380                       # Energy for read commands per rank (pJ)
system.mem_ctrls0_0.writeEnergy                     0                       # Energy for write commands per rank (pJ)
system.mem_ctrls0_0.refreshEnergy        385993920.000000                       # Energy for refresh commands per rank (pJ)
system.mem_ctrls0_0.actBackEnergy           229438110                       # Energy for active background per rank (pJ)
system.mem_ctrls0_0.preBackEnergy            17883840                       # Energy for precharge background per rank (pJ)
system.mem_ctrls0_0.actPowerDownEnergy     1471077090                       # Energy for active power-down per rank (pJ)
system.mem_ctrls0_0.prePowerDownEnergy      440339520                       # Energy for precharge power-down per rank (pJ)
system.mem_ctrls0_0.selfRefreshEnergy     13099161780                       # Energy for self refresh per rank (pJ)
system.mem_ctrls0_0.totalEnergy           15766460175                       # Total energy per rank (pJ)
system.mem_ctrls0_0.averagePower           265.917779                       # Core power per rank (mW)
system.mem_ctrls0_0.totalIdleTime         51727431501                       # Total Idle time Per DRAM Rank
system.mem_ctrls0_0.memoryStateTime::IDLE     28799501                       # Time in different power states
system.mem_ctrls0_0.memoryStateTime::REF    163280000                       # Time in different power states
system.mem_ctrls0_0.memoryStateTime::SREF  54368049250                       # Time in different power states
system.mem_ctrls0_0.memoryStateTime::PRE_PDN   1146780000                       # Time in different power states
system.mem_ctrls0_0.memoryStateTime::ACT    357696998                       # Time in different power states
system.mem_ctrls0_0.memoryStateTime::ACT_PDN   3226116751                       # Time in different power states
system.mem_ctrls0_1.actEnergy                24247440                       # Energy for activate commands per rank (pJ)
system.mem_ctrls0_1.preEnergy                12887820                       # Energy for precharge commands per rank (pJ)
system.mem_ctrls0_1.readEnergy               71828400                       # Energy for read commands per rank (pJ)
system.mem_ctrls0_1.writeEnergy                     0                       # Energy for write commands per rank (pJ)
system.mem_ctrls0_1.refreshEnergy        364481520.000000                       # Energy for refresh commands per rank (pJ)
system.mem_ctrls0_1.actBackEnergy           208764780                       # Energy for active background per rank (pJ)
system.mem_ctrls0_1.preBackEnergy            17800320                       # Energy for precharge background per rank (pJ)
system.mem_ctrls0_1.actPowerDownEnergy     1362639150                       # Energy for active power-down per rank (pJ)
system.mem_ctrls0_1.prePowerDownEnergy      444893760                       # Energy for precharge power-down per rank (pJ)
system.mem_ctrls0_1.selfRefreshEnergy     13166547540                       # Energy for self refresh per rank (pJ)
system.mem_ctrls0_1.totalEnergy           15674206590                       # Total energy per rank (pJ)
system.mem_ctrls0_1.averagePower           264.361826                       # Core power per rank (mW)
system.mem_ctrls0_1.totalIdleTime         51771980003                       # Total Idle time Per DRAM Rank
system.mem_ctrls0_1.memoryStateTime::IDLE     29373500                       # Time in different power states
system.mem_ctrls0_1.memoryStateTime::REF    154180000                       # Time in different power states
system.mem_ctrls0_1.memoryStateTime::SREF  54639464000                       # Time in different power states
system.mem_ctrls0_1.memoryStateTime::PRE_PDN   1158599250                       # Time in different power states
system.mem_ctrls0_1.memoryStateTime::ACT    320834497                       # Time in different power states
system.mem_ctrls0_1.memoryStateTime::ACT_PDN   2988271253                       # Time in different power states
system.mem_ctrls1.pwrStateResidencyTicks::UNDEFINED 2424281538500                       # Cumulative time (in ticks) in various power states
system.mem_ctrls1.bytes_read::.cpu0.data           16                       # Number of bytes read from this memory
system.mem_ctrls1.bytes_read::.ruby.dir_cntrl1     54088192                       # Number of bytes read from this memory
system.mem_ctrls1.bytes_read::total          54088208                       # Number of bytes read from this memory
system.mem_ctrls1.bytes_written::.ruby.dir_cntrl1          640                       # Number of bytes written to this memory
system.mem_ctrls1.bytes_written::total            640                       # Number of bytes written to this memory
system.mem_ctrls1.num_reads::.cpu0.data             2                       # Number of read requests responded to by this memory
system.mem_ctrls1.num_reads::.ruby.dir_cntrl1       845128                       # Number of read requests responded to by this memory
system.mem_ctrls1.num_reads::total             845130                       # Number of read requests responded to by this memory
system.mem_ctrls1.num_writes::.ruby.dir_cntrl1           10                       # Number of write requests responded to by this memory
system.mem_ctrls1.num_writes::total                10                       # Number of write requests responded to by this memory
system.mem_ctrls1.bw_read::.cpu0.data             270                       # Total read bandwidth from this memory (bytes/s)
system.mem_ctrls1.bw_read::.ruby.dir_cntrl1    912253717                       # Total read bandwidth from this memory (bytes/s)
system.mem_ctrls1.bw_read::total            912253987                       # Total read bandwidth from this memory (bytes/s)
system.mem_ctrls1.bw_write::.ruby.dir_cntrl1        10794                       # Write bandwidth from this memory (bytes/s)
system.mem_ctrls1.bw_write::total               10794                       # Write bandwidth from this memory (bytes/s)
system.mem_ctrls1.bw_total::.cpu0.data            270                       # Total bandwidth to/from this memory (bytes/s)
system.mem_ctrls1.bw_total::.ruby.dir_cntrl1    912264511                       # Total bandwidth to/from this memory (bytes/s)
system.mem_ctrls1.bw_total::total           912264781                       # Total bandwidth to/from this memory (bytes/s)
system.mem_ctrls1.avgPriority_.ruby.dir_cntrl1::samples    845138.00                       # Average QoS priority value for accepted requests
system.mem_ctrls1.priorityMinLatency     0.000000018750                       # per QoS priority minimum request to response latency (s)
system.mem_ctrls1.priorityMaxLatency     0.000001138500                       # per QoS priority maximum request to response latency (s)
system.mem_ctrls1.numReadWriteTurnArounds            0                       # Number of turnarounds from READ to WRITE
system.mem_ctrls1.numWriteReadTurnArounds            0                       # Number of turnarounds from WRITE to READ
system.mem_ctrls1.numStayReadState            1697764                       # Number of times bus staying in READ state
system.mem_ctrls1.numStayWriteState                 0                       # Number of times bus staying in WRITE state
system.mem_ctrls1.readReqs                     845128                       # Number of read requests accepted
system.mem_ctrls1.writeReqs                        10                       # Number of write requests accepted
system.mem_ctrls1.readBursts                   845128                       # Number of DRAM read bursts, including those serviced by the write queue
system.mem_ctrls1.writeBursts                      10                       # Number of DRAM write bursts, including those merged in the write queue
system.mem_ctrls1.bytesReadDRAM              54088192                       # Total number of bytes read from DRAM
system.mem_ctrls1.bytesReadWrQ                      0                       # Total number of bytes read from write queue
system.mem_ctrls1.bytesWritten                      0                       # Total number of bytes written to DRAM
system.mem_ctrls1.bytesReadSys               54088192                       # Total read bytes from the system interface side
system.mem_ctrls1.bytesWrittenSys                 640                       # Total written bytes from the system interface side
system.mem_ctrls1.servicedByWrQ                     0                       # Number of DRAM read bursts serviced by the write queue
system.mem_ctrls1.mergedWrBursts                    0                       # Number of DRAM write bursts merged with an existing one
system.mem_ctrls1.neitherReadNorWriteReqs            0                       # Number of requests that are neither read nor write
system.mem_ctrls1.perBankRdBursts::0           825238                       # Per bank write bursts
system.mem_ctrls1.perBankRdBursts::1             1523                       # Per bank write bursts
system.mem_ctrls1.perBankRdBursts::2             1200                       # Per bank write bursts
system.mem_ctrls1.perBankRdBursts::3             1450                       # Per bank write bursts
system.mem_ctrls1.perBankRdBursts::4             1506                       # Per bank write bursts
system.mem_ctrls1.perBankRdBursts::5             1453                       # Per bank write bursts
system.mem_ctrls1.perBankRdBursts::6             1385                       # Per bank write bursts
system.mem_ctrls1.perBankRdBursts::7             1376                       # Per bank write bursts
system.mem_ctrls1.perBankRdBursts::8             1331                       # Per bank write bursts
system.mem_ctrls1.perBankRdBursts::9             1360                       # Per bank write bursts
system.mem_ctrls1.perBankRdBursts::10            1182                       # Per bank write bursts
system.mem_ctrls1.perBankRdBursts::11             969                       # Per bank write bursts
system.mem_ctrls1.perBankRdBursts::12            1591                       # Per bank write bursts
system.mem_ctrls1.perBankRdBursts::13            1303                       # Per bank write bursts
system.mem_ctrls1.perBankRdBursts::14            1261                       # Per bank write bursts
system.mem_ctrls1.perBankRdBursts::15            1000                       # Per bank write bursts
system.mem_ctrls1.perBankWrBursts::0                0                       # Per bank write bursts
system.mem_ctrls1.perBankWrBursts::1                0                       # Per bank write bursts
system.mem_ctrls1.perBankWrBursts::2                0                       # Per bank write bursts
system.mem_ctrls1.perBankWrBursts::3                0                       # Per bank write bursts
system.mem_ctrls1.perBankWrBursts::4                0                       # Per bank write bursts
system.mem_ctrls1.perBankWrBursts::5                0                       # Per bank write bursts
system.mem_ctrls1.perBankWrBursts::6                0                       # Per bank write bursts
system.mem_ctrls1.perBankWrBursts::7                0                       # Per bank write bursts
system.mem_ctrls1.perBankWrBursts::8                0                       # Per bank write bursts
system.mem_ctrls1.perBankWrBursts::9                0                       # Per bank write bursts
system.mem_ctrls1.perBankWrBursts::10               0                       # Per bank write bursts
system.mem_ctrls1.perBankWrBursts::11               0                       # Per bank write bursts
system.mem_ctrls1.perBankWrBursts::12               0                       # Per bank write bursts
system.mem_ctrls1.perBankWrBursts::13               0                       # Per bank write bursts
system.mem_ctrls1.perBankWrBursts::14               0                       # Per bank write bursts
system.mem_ctrls1.perBankWrBursts::15               0                       # Per bank write bursts
system.mem_ctrls1.numRdRetry                        0                       # Number of times read queue was full causing retry
system.mem_ctrls1.numWrRetry                        0                       # Number of times write queue was full causing retry
system.mem_ctrls1.totGap                  59290684500                       # Total gap between requests
system.mem_ctrls1.readPktSize::0                    0                       # Read request sizes (log2)
system.mem_ctrls1.readPktSize::1                    0                       # Read request sizes (log2)
system.mem_ctrls1.readPktSize::2                    0                       # Read request sizes (log2)
system.mem_ctrls1.readPktSize::3                    0                       # Read request sizes (log2)
system.mem_ctrls1.readPktSize::4                    0                       # Read request sizes (log2)
system.mem_ctrls1.readPktSize::5                    0                       # Read request sizes (log2)
system.mem_ctrls1.readPktSize::6               845128                       # Read request sizes (log2)
system.mem_ctrls1.writePktSize::0                   0                       # Write request sizes (log2)
system.mem_ctrls1.writePktSize::1                   0                       # Write request sizes (log2)
system.mem_ctrls1.writePktSize::2                   0                       # Write request sizes (log2)
system.mem_ctrls1.writePktSize::3                   0                       # Write request sizes (log2)
system.mem_ctrls1.writePktSize::4                   0                       # Write request sizes (log2)
system.mem_ctrls1.writePktSize::5                   0                       # Write request sizes (log2)
system.mem_ctrls1.writePktSize::6                  10                       # Write request sizes (log2)
system.mem_ctrls1.rdQLenPdf::0                 840397                       # What read queue length does an incoming req see
system.mem_ctrls1.rdQLenPdf::1                   3886                       # What read queue length does an incoming req see
system.mem_ctrls1.rdQLenPdf::2                    703                       # What read queue length does an incoming req see
system.mem_ctrls1.rdQLenPdf::3                    115                       # What read queue length does an incoming req see
system.mem_ctrls1.rdQLenPdf::4                     16                       # What read queue length does an incoming req see
system.mem_ctrls1.rdQLenPdf::5                      8                       # What read queue length does an incoming req see
system.mem_ctrls1.rdQLenPdf::6                      2                       # What read queue length does an incoming req see
system.mem_ctrls1.rdQLenPdf::7                      1                       # What read queue length does an incoming req see
system.mem_ctrls1.rdQLenPdf::8                      0                       # What read queue length does an incoming req see
system.mem_ctrls1.rdQLenPdf::9                      0                       # What read queue length does an incoming req see
system.mem_ctrls1.rdQLenPdf::10                     0                       # What read queue length does an incoming req see
system.mem_ctrls1.rdQLenPdf::11                     0                       # What read queue length does an incoming req see
system.mem_ctrls1.rdQLenPdf::12                     0                       # What read queue length does an incoming req see
system.mem_ctrls1.rdQLenPdf::13                     0                       # What read queue length does an incoming req see
system.mem_ctrls1.rdQLenPdf::14                     0                       # What read queue length does an incoming req see
system.mem_ctrls1.rdQLenPdf::15                     0                       # What read queue length does an incoming req see
system.mem_ctrls1.rdQLenPdf::16                     0                       # What read queue length does an incoming req see
system.mem_ctrls1.rdQLenPdf::17                     0                       # What read queue length does an incoming req see
system.mem_ctrls1.rdQLenPdf::18                     0                       # What read queue length does an incoming req see
system.mem_ctrls1.rdQLenPdf::19                     0                       # What read queue length does an incoming req see
system.mem_ctrls1.rdQLenPdf::20                     0                       # What read queue length does an incoming req see
system.mem_ctrls1.rdQLenPdf::21                     0                       # What read queue length does an incoming req see
system.mem_ctrls1.rdQLenPdf::22                     0                       # What read queue length does an incoming req see
system.mem_ctrls1.rdQLenPdf::23                     0                       # What read queue length does an incoming req see
system.mem_ctrls1.rdQLenPdf::24                     0                       # What read queue length does an incoming req see
system.mem_ctrls1.rdQLenPdf::25                     0                       # What read queue length does an incoming req see
system.mem_ctrls1.rdQLenPdf::26                     0                       # What read queue length does an incoming req see
system.mem_ctrls1.rdQLenPdf::27                     0                       # What read queue length does an incoming req see
system.mem_ctrls1.rdQLenPdf::28                     0                       # What read queue length does an incoming req see
system.mem_ctrls1.rdQLenPdf::29                     0                       # What read queue length does an incoming req see
system.mem_ctrls1.rdQLenPdf::30                     0                       # What read queue length does an incoming req see
system.mem_ctrls1.rdQLenPdf::31                     0                       # What read queue length does an incoming req see
system.mem_ctrls1.wrQLenPdf::0                      1                       # What write queue length does an incoming req see
system.mem_ctrls1.wrQLenPdf::1                      1                       # What write queue length does an incoming req see
system.mem_ctrls1.wrQLenPdf::2                      1                       # What write queue length does an incoming req see
system.mem_ctrls1.wrQLenPdf::3                      1                       # What write queue length does an incoming req see
system.mem_ctrls1.wrQLenPdf::4                      1                       # What write queue length does an incoming req see
system.mem_ctrls1.wrQLenPdf::5                      1                       # What write queue length does an incoming req see
system.mem_ctrls1.wrQLenPdf::6                      1                       # What write queue length does an incoming req see
system.mem_ctrls1.wrQLenPdf::7                      1                       # What write queue length does an incoming req see
system.mem_ctrls1.wrQLenPdf::8                      1                       # What write queue length does an incoming req see
system.mem_ctrls1.wrQLenPdf::9                      1                       # What write queue length does an incoming req see
system.mem_ctrls1.wrQLenPdf::10                     0                       # What write queue length does an incoming req see
system.mem_ctrls1.wrQLenPdf::11                     0                       # What write queue length does an incoming req see
system.mem_ctrls1.wrQLenPdf::12                     0                       # What write queue length does an incoming req see
system.mem_ctrls1.wrQLenPdf::13                     0                       # What write queue length does an incoming req see
system.mem_ctrls1.wrQLenPdf::14                     0                       # What write queue length does an incoming req see
system.mem_ctrls1.wrQLenPdf::15                     0                       # What write queue length does an incoming req see
system.mem_ctrls1.wrQLenPdf::16                     0                       # What write queue length does an incoming req see
system.mem_ctrls1.wrQLenPdf::17                     0                       # What write queue length does an incoming req see
system.mem_ctrls1.wrQLenPdf::18                     0                       # What write queue length does an incoming req see
system.mem_ctrls1.wrQLenPdf::19                     0                       # What write queue length does an incoming req see
system.mem_ctrls1.wrQLenPdf::20                     0                       # What write queue length does an incoming req see
system.mem_ctrls1.wrQLenPdf::21                     0                       # What write queue length does an incoming req see
system.mem_ctrls1.wrQLenPdf::22                     0                       # What write queue length does an incoming req see
system.mem_ctrls1.wrQLenPdf::23                     0                       # What write queue length does an incoming req see
system.mem_ctrls1.wrQLenPdf::24                     0                       # What write queue length does an incoming req see
system.mem_ctrls1.wrQLenPdf::25                     0                       # What write queue length does an incoming req see
system.mem_ctrls1.wrQLenPdf::26                     0                       # What write queue length does an incoming req see
system.mem_ctrls1.wrQLenPdf::27                     0                       # What write queue length does an incoming req see
system.mem_ctrls1.wrQLenPdf::28                     0                       # What write queue length does an incoming req see
system.mem_ctrls1.wrQLenPdf::29                     0                       # What write queue length does an incoming req see
system.mem_ctrls1.wrQLenPdf::30                     0                       # What write queue length does an incoming req see
system.mem_ctrls1.wrQLenPdf::31                     0                       # What write queue length does an incoming req see
system.mem_ctrls1.wrQLenPdf::32                     0                       # What write queue length does an incoming req see
system.mem_ctrls1.wrQLenPdf::33                     0                       # What write queue length does an incoming req see
system.mem_ctrls1.wrQLenPdf::34                     0                       # What write queue length does an incoming req see
system.mem_ctrls1.wrQLenPdf::35                     0                       # What write queue length does an incoming req see
system.mem_ctrls1.wrQLenPdf::36                     0                       # What write queue length does an incoming req see
system.mem_ctrls1.wrQLenPdf::37                     0                       # What write queue length does an incoming req see
system.mem_ctrls1.wrQLenPdf::38                     0                       # What write queue length does an incoming req see
system.mem_ctrls1.wrQLenPdf::39                     0                       # What write queue length does an incoming req see
system.mem_ctrls1.wrQLenPdf::40                     0                       # What write queue length does an incoming req see
system.mem_ctrls1.wrQLenPdf::41                     0                       # What write queue length does an incoming req see
system.mem_ctrls1.wrQLenPdf::42                     0                       # What write queue length does an incoming req see
system.mem_ctrls1.wrQLenPdf::43                     0                       # What write queue length does an incoming req see
system.mem_ctrls1.wrQLenPdf::44                     0                       # What write queue length does an incoming req see
system.mem_ctrls1.wrQLenPdf::45                     0                       # What write queue length does an incoming req see
system.mem_ctrls1.wrQLenPdf::46                     0                       # What write queue length does an incoming req see
system.mem_ctrls1.wrQLenPdf::47                     0                       # What write queue length does an incoming req see
system.mem_ctrls1.wrQLenPdf::48                     0                       # What write queue length does an incoming req see
system.mem_ctrls1.wrQLenPdf::49                     0                       # What write queue length does an incoming req see
system.mem_ctrls1.wrQLenPdf::50                     0                       # What write queue length does an incoming req see
system.mem_ctrls1.wrQLenPdf::51                     0                       # What write queue length does an incoming req see
system.mem_ctrls1.wrQLenPdf::52                     0                       # What write queue length does an incoming req see
system.mem_ctrls1.wrQLenPdf::53                     0                       # What write queue length does an incoming req see
system.mem_ctrls1.wrQLenPdf::54                     0                       # What write queue length does an incoming req see
system.mem_ctrls1.wrQLenPdf::55                     0                       # What write queue length does an incoming req see
system.mem_ctrls1.wrQLenPdf::56                     0                       # What write queue length does an incoming req see
system.mem_ctrls1.wrQLenPdf::57                     0                       # What write queue length does an incoming req see
system.mem_ctrls1.wrQLenPdf::58                     0                       # What write queue length does an incoming req see
system.mem_ctrls1.wrQLenPdf::59                     0                       # What write queue length does an incoming req see
system.mem_ctrls1.wrQLenPdf::60                     0                       # What write queue length does an incoming req see
system.mem_ctrls1.wrQLenPdf::61                     0                       # What write queue length does an incoming req see
system.mem_ctrls1.wrQLenPdf::62                     0                       # What write queue length does an incoming req see
system.mem_ctrls1.wrQLenPdf::63                     0                       # What write queue length does an incoming req see
system.mem_ctrls1.bytesPerActivate::samples        62111                       # Bytes accessed per row activation
system.mem_ctrls1.bytesPerActivate::mean   870.815669                       # Bytes accessed per row activation
system.mem_ctrls1.bytesPerActivate::gmean   738.153328                       # Bytes accessed per row activation
system.mem_ctrls1.bytesPerActivate::stdev   305.245296                       # Bytes accessed per row activation
system.mem_ctrls1.bytesPerActivate::0-127         4102      6.60%      6.60% # Bytes accessed per row activation
system.mem_ctrls1.bytesPerActivate::128-255         1604      2.58%      9.19% # Bytes accessed per row activation
system.mem_ctrls1.bytesPerActivate::256-383          532      0.86%     10.04% # Bytes accessed per row activation
system.mem_ctrls1.bytesPerActivate::384-511          249      0.40%     10.44% # Bytes accessed per row activation
system.mem_ctrls1.bytesPerActivate::512-639         6979     11.24%     21.68% # Bytes accessed per row activation
system.mem_ctrls1.bytesPerActivate::640-767           85      0.14%     21.82% # Bytes accessed per row activation
system.mem_ctrls1.bytesPerActivate::768-895           70      0.11%     21.93% # Bytes accessed per row activation
system.mem_ctrls1.bytesPerActivate::896-1023           69      0.11%     22.04% # Bytes accessed per row activation
system.mem_ctrls1.bytesPerActivate::1024-1151        48421     77.96%    100.00% # Bytes accessed per row activation
system.mem_ctrls1.bytesPerActivate::total        62111                       # Bytes accessed per row activation
system.mem_ctrls1.masterReadBytes::.ruby.dir_cntrl1     54088192                       # Per-master bytes read from memory
system.mem_ctrls1.masterReadRate::.ruby.dir_cntrl1 912253716.679015278816                       # Per-master bytes read from memory rate (Bytes/sec)
system.mem_ctrls1.masterReadAccesses::.ruby.dir_cntrl1       845128                       # Per-master read serviced memory accesses
system.mem_ctrls1.masterWriteAccesses::.ruby.dir_cntrl1           10                       # Per-master write serviced memory accesses
system.mem_ctrls1.masterReadTotalLat::.ruby.dir_cntrl1  23644936972                       # Per-master read total memory access latency
system.mem_ctrls1.masterReadAvgLat::.ruby.dir_cntrl1     27977.94                       # Per-master read average memory access latency
system.mem_ctrls1.masterWriteAvgLat::.ruby.dir_cntrl1         0.00                       # Per-master write average memory access latency
system.mem_ctrls1.totQLat                  7798786972                       # Total ticks spent queuing
system.mem_ctrls1.totMemAccLat            23644936972                       # Total ticks spent from burst creation until serviced by the DRAM
system.mem_ctrls1.totBusLat                4225640000                       # Total ticks spent in databus transfers
system.mem_ctrls1.avgQLat                     9227.94                       # Average queueing delay per DRAM burst
system.mem_ctrls1.avgBusLat                   5000.00                       # Average bus latency per DRAM burst
system.mem_ctrls1.avgMemAccLat               27977.94                       # Average memory access latency per DRAM burst
system.mem_ctrls1.avgRdBW                      912.25                       # Average DRAM read bandwidth in MiByte/s
system.mem_ctrls1.avgWrBW                        0.00                       # Average achieved write bandwidth in MiByte/s
system.mem_ctrls1.avgRdBWSys                   912.25                       # Average system read bandwidth in MiByte/s
system.mem_ctrls1.avgWrBWSys                     0.01                       # Average system write bandwidth in MiByte/s
system.mem_ctrls1.peakBW                     12800.00                       # Theoretical peak bandwidth in MiByte/s
system.mem_ctrls1.busUtil                        7.13                       # Data bus utilization in percentage
system.mem_ctrls1.busUtilRead                    7.13                       # Data bus utilization in percentage for reads
system.mem_ctrls1.busUtilWrite                   0.00                       # Data bus utilization in percentage for writes
system.mem_ctrls1.avgRdQLen                      1.01                       # Average read queue length when enqueuing
system.mem_ctrls1.avgWrQLen                      7.97                       # Average write queue length when enqueuing
system.mem_ctrls1.readRowHits                  783016                       # Number of row buffer hits during reads
system.mem_ctrls1.writeRowHits                      0                       # Number of row buffer hits during writes
system.mem_ctrls1.readRowHitRate                92.65                       # Row buffer hit rate for reads
system.mem_ctrls1.writeRowHitRate                0.00                       # Row buffer hit rate for writes
system.mem_ctrls1.avgGap                     70155.03                       # Average gap between requests
system.mem_ctrls1.pageHitRate                   92.65                       # Row buffer hit rate, read and write combined
system.mem_ctrls1_0.actEnergy               419696340                       # Energy for activate commands per rank (pJ)
system.mem_ctrls1_0.preEnergy               223070100                       # Energy for precharge commands per rank (pJ)
system.mem_ctrls1_0.readEnergy             5962835340                       # Energy for read commands per rank (pJ)
system.mem_ctrls1_0.writeEnergy                     0                       # Energy for write commands per rank (pJ)
system.mem_ctrls1_0.refreshEnergy        4590131520.000001                       # Energy for refresh commands per rank (pJ)
system.mem_ctrls1_0.actBackEnergy         10243128000                       # Energy for active background per rank (pJ)
system.mem_ctrls1_0.preBackEnergy           460297920                       # Energy for precharge background per rank (pJ)
system.mem_ctrls1_0.actPowerDownEnergy    14519843700                       # Energy for active power-down per rank (pJ)
system.mem_ctrls1_0.prePowerDownEnergy     1024240320                       # Energy for precharge power-down per rank (pJ)
system.mem_ctrls1_0.selfRefreshEnergy       310209600                       # Energy for self refresh per rank (pJ)
system.mem_ctrls1_0.totalEnergy           37753833210                       # Total energy per rank (pJ)
system.mem_ctrls1_0.averagePower           636.757736                       # Core power per rank (mW)
system.mem_ctrls1_0.totalIdleTime         35628176502                       # Total Idle time Per DRAM Rank
system.mem_ctrls1_0.memoryStateTime::IDLE    332529500                       # Time in different power states
system.mem_ctrls1_0.memoryStateTime::REF   1941680000                       # Time in different power states
system.mem_ctrls1_0.memoryStateTime::SREF   1119118500                       # Time in different power states
system.mem_ctrls1_0.memoryStateTime::PRE_PDN   2665931501                       # Time in different power states
system.mem_ctrls1_0.memoryStateTime::ACT  21388332748                       # Time in different power states
system.mem_ctrls1_0.memoryStateTime::ACT_PDN  31843130251                       # Time in different power states
system.mem_ctrls1_1.actEnergy                23783340                       # Energy for activate commands per rank (pJ)
system.mem_ctrls1_1.preEnergy                12641145                       # Energy for precharge commands per rank (pJ)
system.mem_ctrls1_1.readEnergy               71378580                       # Energy for read commands per rank (pJ)
system.mem_ctrls1_1.writeEnergy                     0                       # Energy for write commands per rank (pJ)
system.mem_ctrls1_1.refreshEnergy        360793680.000000                       # Energy for refresh commands per rank (pJ)
system.mem_ctrls1_1.actBackEnergy           209869440                       # Energy for active background per rank (pJ)
system.mem_ctrls1_1.preBackEnergy            18312960                       # Energy for precharge background per rank (pJ)
system.mem_ctrls1_1.actPowerDownEnergy     1342811130                       # Energy for active power-down per rank (pJ)
system.mem_ctrls1_1.prePowerDownEnergy      442425600                       # Energy for precharge power-down per rank (pJ)
system.mem_ctrls1_1.selfRefreshEnergy     13179226560                       # Energy for self refresh per rank (pJ)
system.mem_ctrls1_1.totalEnergy           15661374405                       # Total energy per rank (pJ)
system.mem_ctrls1_1.averagePower           264.145398                       # Core power per rank (mW)
system.mem_ctrls1_1.totalIdleTime         51778426007                       # Total Idle time Per DRAM Rank
system.mem_ctrls1_1.memoryStateTime::IDLE     30457500                       # Time in different power states
system.mem_ctrls1_1.memoryStateTime::REF    152620000                       # Time in different power states
system.mem_ctrls1_1.memoryStateTime::SREF  54685353500                       # Time in different power states
system.mem_ctrls1_1.memoryStateTime::PRE_PDN   1152165000                       # Time in different power states
system.mem_ctrls1_1.memoryStateTime::ACT    325247493                       # Time in different power states
system.mem_ctrls1_1.memoryStateTime::ACT_PDN   2944879007                       # Time in different power states
system.pwrStateResidencyTicks::UNDEFINED 2424281538500                       # Cumulative time (in ticks) in various power states
system.cpu_voltage_domain.voltage                   1                       # Voltage in Volts
system.cpu_clk_domain.clock                       500                       # Clock period in ticks
system.cpu0.dtb.walker.pwrStateResidencyTicks::UNDEFINED 2424281538500                       # Cumulative time (in ticks) in various power states
system.cpu0.dtb.rdAccesses                          4                       # TLB accesses on read requests
system.cpu0.dtb.wrAccesses                          0                       # TLB accesses on write requests
system.cpu0.dtb.rdMisses                            0                       # TLB misses on read requests
system.cpu0.dtb.wrMisses                            0                       # TLB misses on write requests
system.cpu0.apic_clk_domain.clock                8000                       # Clock period in ticks
system.cpu0.interrupts.pwrStateResidencyTicks::UNDEFINED 2424281538500                       # Cumulative time (in ticks) in various power states
system.cpu0.itb.walker.pwrStateResidencyTicks::UNDEFINED 2424281538500                       # Cumulative time (in ticks) in various power states
system.cpu0.itb.rdAccesses                          0                       # TLB accesses on read requests
system.cpu0.itb.wrAccesses                          8                       # TLB accesses on write requests
system.cpu0.itb.rdMisses                            0                       # TLB misses on read requests
system.cpu0.itb.wrMisses                            0                       # TLB misses on write requests
system.cpu0.numPwrStateTransitions                  1                       # Number of power state transitions
system.cpu0.pwrStateResidencyTicks::ON          11000                       # Cumulative time (in ticks) in various power states
system.cpu0.pwrStateResidencyTicks::OFF   59290722500                       # Cumulative time (in ticks) in various power states
system.cpu0.numCycles                              22                       # number of cpu cycles simulated
system.cpu0.numWorkItemsStarted                     0                       # number of work items this cpu started
system.cpu0.numWorkItemsCompleted                   0                       # number of work items this cpu completed
system.cpu0.kern.inst.arm                           0                       # number of arm instructions executed
system.cpu0.kern.inst.quiesce                       0                       # number of quiesce instructions executed
system.cpu0.committedInsts                          7                       # Number of instructions committed
system.cpu0.committedOps                           21                       # Number of ops (including micro ops) committed
system.cpu0.num_int_alu_accesses                    9                       # Number of integer alu accesses
system.cpu0.num_fp_alu_accesses                    12                       # Number of float alu accesses
system.cpu0.num_vec_alu_accesses                    0                       # Number of vector alu accesses
system.cpu0.num_func_calls                          0                       # number of times a function call or return occured
system.cpu0.num_conditional_control_insts            2                       # number of instructions that are conditional controls
system.cpu0.num_int_insts                           9                       # number of integer instructions
system.cpu0.num_fp_insts                           12                       # number of float instructions
system.cpu0.num_vec_insts                           0                       # number of vector instructions
system.cpu0.num_int_register_reads                 20                       # number of times the integer registers were read
system.cpu0.num_int_register_writes                 4                       # number of times the integer registers were written
system.cpu0.num_fp_register_reads                  18                       # number of times the floating registers were read
system.cpu0.num_fp_register_writes                 12                       # number of times the floating registers were written
system.cpu0.num_vec_register_reads                  0                       # number of times the vector registers were read
system.cpu0.num_vec_register_writes                 0                       # number of times the vector registers were written
system.cpu0.num_cc_register_reads                  10                       # number of times the CC registers were read
system.cpu0.num_cc_register_writes                  2                       # number of times the CC registers were written
system.cpu0.num_mem_refs                            4                       # number of memory refs
system.cpu0.num_load_insts                          4                       # Number of load instructions
system.cpu0.num_store_insts                         0                       # Number of store instructions
system.cpu0.num_idle_cycles                         0                       # Number of idle cycles
system.cpu0.num_busy_cycles                        22                       # Number of busy cycles
system.cpu0.not_idle_fraction                       1                       # Percentage of non-idle cycles
system.cpu0.idle_fraction                           0                       # Percentage of idle cycles
system.cpu0.Branches                                4                       # Number of branches fetched
system.cpu0.op_class::No_OpClass                    4     19.05%     19.05% # Class of executed instruction
system.cpu0.op_class::IntAlu                        5     23.81%     42.86% # Class of executed instruction
system.cpu0.op_class::IntMult                       0      0.00%     42.86% # Class of executed instruction
system.cpu0.op_class::IntDiv                        0      0.00%     42.86% # Class of executed instruction
system.cpu0.op_class::FloatAdd                      1      4.76%     47.62% # Class of executed instruction
system.cpu0.op_class::FloatCmp                      0      0.00%     47.62% # Class of executed instruction
system.cpu0.op_class::FloatCvt                      0      0.00%     47.62% # Class of executed instruction
system.cpu0.op_class::FloatMult                     0      0.00%     47.62% # Class of executed instruction
system.cpu0.op_class::FloatMultAcc                  0      0.00%     47.62% # Class of executed instruction
system.cpu0.op_class::FloatDiv                      0      0.00%     47.62% # Class of executed instruction
system.cpu0.op_class::FloatMisc                     0      0.00%     47.62% # Class of executed instruction
system.cpu0.op_class::FloatSqrt                     0      0.00%     47.62% # Class of executed instruction
system.cpu0.op_class::SimdAdd                       0      0.00%     47.62% # Class of executed instruction
system.cpu0.op_class::SimdAddAcc                    0      0.00%     47.62% # Class of executed instruction
system.cpu0.op_class::SimdAlu                       2      9.52%     57.14% # Class of executed instruction
system.cpu0.op_class::SimdCmp                       0      0.00%     57.14% # Class of executed instruction
system.cpu0.op_class::SimdCvt                       4     19.05%     76.19% # Class of executed instruction
system.cpu0.op_class::SimdMisc                      0      0.00%     76.19% # Class of executed instruction
system.cpu0.op_class::SimdMult                      0      0.00%     76.19% # Class of executed instruction
system.cpu0.op_class::SimdMultAcc                   0      0.00%     76.19% # Class of executed instruction
system.cpu0.op_class::SimdShift                     1      4.76%     80.95% # Class of executed instruction
system.cpu0.op_class::SimdShiftAcc                  0      0.00%     80.95% # Class of executed instruction
system.cpu0.op_class::SimdSqrt                      0      0.00%     80.95% # Class of executed instruction
system.cpu0.op_class::SimdFloatAdd                  0      0.00%     80.95% # Class of executed instruction
system.cpu0.op_class::SimdFloatAlu                  0      0.00%     80.95% # Class of executed instruction
system.cpu0.op_class::SimdFloatCmp                  0      0.00%     80.95% # Class of executed instruction
system.cpu0.op_class::SimdFloatCvt                  0      0.00%     80.95% # Class of executed instruction
system.cpu0.op_class::SimdFloatDiv                  0      0.00%     80.95% # Class of executed instruction
system.cpu0.op_class::SimdFloatMisc                 0      0.00%     80.95% # Class of executed instruction
system.cpu0.op_class::SimdFloatMult                 0      0.00%     80.95% # Class of executed instruction
system.cpu0.op_class::SimdFloatMultAcc              0      0.00%     80.95% # Class of executed instruction
system.cpu0.op_class::SimdFloatSqrt                 0      0.00%     80.95% # Class of executed instruction
system.cpu0.op_class::SimdAes                       0      0.00%     80.95% # Class of executed instruction
system.cpu0.op_class::SimdAesMix                    0      0.00%     80.95% # Class of executed instruction
system.cpu0.op_class::SimdSha1Hash                  0      0.00%     80.95% # Class of executed instruction
system.cpu0.op_class::SimdSha1Hash2                 0      0.00%     80.95% # Class of executed instruction
system.cpu0.op_class::SimdSha256Hash                0      0.00%     80.95% # Class of executed instruction
system.cpu0.op_class::SimdSha256Hash2               0      0.00%     80.95% # Class of executed instruction
system.cpu0.op_class::SimdShaSigma2                 0      0.00%     80.95% # Class of executed instruction
system.cpu0.op_class::SimdShaSigma3                 0      0.00%     80.95% # Class of executed instruction
system.cpu0.op_class::MemRead                       0      0.00%     80.95% # Class of executed instruction
system.cpu0.op_class::MemWrite                      0      0.00%     80.95% # Class of executed instruction
system.cpu0.op_class::FloatMemRead                  4     19.05%    100.00% # Class of executed instruction
system.cpu0.op_class::FloatMemWrite                 0      0.00%    100.00% # Class of executed instruction
system.cpu0.op_class::IprAccess                     0      0.00%    100.00% # Class of executed instruction
system.cpu0.op_class::InstPrefetch                  0      0.00%    100.00% # Class of executed instruction
system.cpu0.op_class::total                        21                       # Class of executed instruction
system.cpu1.dtb.walker.pwrStateResidencyTicks::UNDEFINED 2424281538500                       # Cumulative time (in ticks) in various power states
system.cpu1.dtb.rdAccesses                          3                       # TLB accesses on read requests
system.cpu1.dtb.wrAccesses                          2                       # TLB accesses on write requests
system.cpu1.dtb.rdMisses                            0                       # TLB misses on read requests
system.cpu1.dtb.wrMisses                            0                       # TLB misses on write requests
system.cpu1.apic_clk_domain.clock                8000                       # Clock period in ticks
system.cpu1.interrupts.pwrStateResidencyTicks::UNDEFINED 2424281538500                       # Cumulative time (in ticks) in various power states
system.cpu1.itb.walker.pwrStateResidencyTicks::UNDEFINED 2424281538500                       # Cumulative time (in ticks) in various power states
system.cpu1.itb.rdAccesses                          0                       # TLB accesses on read requests
system.cpu1.itb.wrAccesses                          9                       # TLB accesses on write requests
system.cpu1.itb.rdMisses                            0                       # TLB misses on read requests
system.cpu1.itb.wrMisses                            0                       # TLB misses on write requests
system.cpu1.numPwrStateTransitions                  1                       # Number of power state transitions
system.cpu1.pwrStateResidencyTicks::ON          11000                       # Cumulative time (in ticks) in various power states
system.cpu1.pwrStateResidencyTicks::OFF   59290722500                       # Cumulative time (in ticks) in various power states
system.cpu1.numCycles                              22                       # number of cpu cycles simulated
system.cpu1.numWorkItemsStarted                     0                       # number of work items this cpu started
[...]
system.ruby.L1Cache_Controller.Data_all_Acksp::total       823870                      
system.ruby.L1Cache_Controller.Ack       |         674     51.29%     51.29% |         640     48.71%    100.00%
system.ruby.L1Cache_Controller.Ack::total         1314                      
system.ruby.L1Cache_Controller.Ack_all   |         710     51.37%     51.37% |         672     48.63%    100.00%
system.ruby.L1Cache_Controller.Ack_all::total         1382                      
system.ruby.L1Cache_Controller.WB_Ack    |       71619     43.71%     43.71% |       92241     56.29%    100.00%
system.ruby.L1Cache_Controller.WB_Ack::total       163860                      
system.ruby.L1Cache_Controller.NP.Load   |       56915      5.97%      5.97% |      896741     94.03%    100.00%
system.ruby.L1Cache_Controller.NP.Load::total       953656                      
system.ruby.L1Cache_Controller.NP.Ifetch |       47666     34.84%     34.84% |       89134     65.16%    100.00%
system.ruby.L1Cache_Controller.NP.Ifetch::total       136800                      
system.ruby.L1Cache_Controller.NP.Store  |       22775     41.31%     41.31% |       32352     58.69%    100.00%
system.ruby.L1Cache_Controller.NP.Store::total        55127                      
system.ruby.L1Cache_Controller.NP.Inv    |         163     61.28%     61.28% |         103     38.72%    100.00%
system.ruby.L1Cache_Controller.NP.Inv::total          266                      
system.ruby.L1Cache_Controller.I.Load    |         169     48.01%     48.01% |         183     51.99%    100.00%
system.ruby.L1Cache_Controller.I.Load::total          352                      
system.ruby.L1Cache_Controller.I.Store   |          23     48.94%     48.94% |          24     51.06%    100.00%
system.ruby.L1Cache_Controller.I.Store::total           47                      
system.ruby.L1Cache_Controller.I.L1_Replacement |         412     43.83%     43.83% |         528     56.17%    100.00%
system.ruby.L1Cache_Controller.I.L1_Replacement::total          940                      
system.ruby.L1Cache_Controller.S.Load    |     1023725     85.80%     85.80% |      169382     14.20%    100.00%
system.ruby.L1Cache_Controller.S.Load::total      1193107                      
system.ruby.L1Cache_Controller.S.Ifetch  |    26196445     94.24%     94.24% |     1601369      5.76%    100.00%
system.ruby.L1Cache_Controller.S.Ifetch::total     27797814                      
system.ruby.L1Cache_Controller.S.Store   |         675     51.29%     51.29% |         641     48.71%    100.00%
system.ruby.L1Cache_Controller.S.Store::total         1316                      
system.ruby.L1Cache_Controller.S.Inv     |         516     45.22%     45.22% |         625     54.78%    100.00%
system.ruby.L1Cache_Controller.S.Inv::total         1141                      
system.ruby.L1Cache_Controller.S.L1_Replacement |       54301     35.06%     35.06% |      100566     64.94%    100.00%
system.ruby.L1Cache_Controller.S.L1_Replacement::total       154867                      
system.ruby.L1Cache_Controller.E.Load    |    17952438     94.37%     94.37% |     1070677      5.63%    100.00%
system.ruby.L1Cache_Controller.E.Load::total     19023115                      
system.ruby.L1Cache_Controller.E.Store   |        6817     28.53%     28.53% |       17077     71.47%    100.00%
system.ruby.L1Cache_Controller.E.Store::total        23894                      
system.ruby.L1Cache_Controller.E.L1_Replacement |       42213     49.53%     49.53% |       43017     50.47%    100.00%
system.ruby.L1Cache_Controller.E.L1_Replacement::total        85230                      
system.ruby.L1Cache_Controller.E.Fwd_GETX |           7     13.73%     13.73% |          44     86.27%    100.00%
system.ruby.L1Cache_Controller.E.Fwd_GETX::total           51                      
system.ruby.L1Cache_Controller.E.Fwd_GETS |         524     53.85%     53.85% |         449     46.15%    100.00%
system.ruby.L1Cache_Controller.E.Fwd_GETS::total          973                      
system.ruby.L1Cache_Controller.E.Fwd_GET_INSTR |           0      0.00%      0.00% |           2    100.00%    100.00%
system.ruby.L1Cache_Controller.E.Fwd_GET_INSTR::total            2                      
system.ruby.L1Cache_Controller.M.Load    |    13196206     92.04%     92.04% |     1141744      7.96%    100.00%
system.ruby.L1Cache_Controller.M.Load::total     14337950                      
system.ruby.L1Cache_Controller.M.Store   |     3003736     74.04%     74.04% |     1053268     25.96%    100.00%
system.ruby.L1Cache_Controller.M.Store::total      4057004                      
system.ruby.L1Cache_Controller.M.L1_Replacement |       29406     37.40%     37.40% |       49224     62.60%    100.00%
system.ruby.L1Cache_Controller.M.L1_Replacement::total        78630                      
system.ruby.L1Cache_Controller.M.Fwd_GETX |          81     54.36%     54.36% |          68     45.64%    100.00%
system.ruby.L1Cache_Controller.M.Fwd_GETX::total          149                      
system.ruby.L1Cache_Controller.M.Fwd_GETS |         566     49.61%     49.61% |         575     50.39%    100.00%
system.ruby.L1Cache_Controller.M.Fwd_GETS::total         1141                      
system.ruby.L1Cache_Controller.IS.L1_Replacement |           0      0.00%      0.00% |           1    100.00%    100.00%
system.ruby.L1Cache_Controller.IS.L1_Replacement::total            1                      
system.ruby.L1Cache_Controller.IS.Data_Exclusive |       49831     45.07%     45.07% |       60744     54.93%    100.00%
system.ruby.L1Cache_Controller.IS.Data_Exclusive::total       110575                      
system.ruby.L1Cache_Controller.IS.DataS_fromL1 |        1026     48.49%     48.49% |        1090     51.51%    100.00%
system.ruby.L1Cache_Controller.IS.DataS_fromL1::total         2116                      
system.ruby.L1Cache_Controller.IS.Data_all_Acks |       53893     34.94%     34.94% |      100353     65.06%    100.00%
system.ruby.L1Cache_Controller.IS.Data_all_Acks::total       154246                      
system.ruby.L1Cache_Controller.IS.Data_all_Acksp |           0      0.00%      0.00% |      823870    100.00%    100.00%
system.ruby.L1Cache_Controller.IS.Data_all_Acksp::total       823870                      
system.ruby.L1Cache_Controller.IM.Data   |          36     52.94%     52.94% |          32     47.06%    100.00%
system.ruby.L1Cache_Controller.IM.Data::total           68                      
system.ruby.L1Cache_Controller.IM.Data_all_Acks |       22763     41.31%     41.31% |       32345     58.69%    100.00%
system.ruby.L1Cache_Controller.IM.Data_all_Acks::total        55108                      
system.ruby.L1Cache_Controller.SM.Inv    |           1     50.00%     50.00% |           1     50.00%    100.00%
system.ruby.L1Cache_Controller.SM.Inv::total            2                      
system.ruby.L1Cache_Controller.SM.Ack    |         674     51.29%     51.29% |         640     48.71%    100.00%
system.ruby.L1Cache_Controller.SM.Ack::total         1314                      
system.ruby.L1Cache_Controller.SM.Ack_all |         710     51.37%     51.37% |         672     48.63%    100.00%
system.ruby.L1Cache_Controller.SM.Ack_all::total         1382                      
system.ruby.L1Cache_Controller.M_I.Load  |          14     33.33%     33.33% |          28     66.67%    100.00%
system.ruby.L1Cache_Controller.M_I.Load::total           42                      
system.ruby.L1Cache_Controller.M_I.Ifetch |           2     33.33%     33.33% |           4     66.67%    100.00%
system.ruby.L1Cache_Controller.M_I.Ifetch::total            6                      
system.ruby.L1Cache_Controller.M_I.Store |           2    100.00%    100.00% |           0      0.00%    100.00%
system.ruby.L1Cache_Controller.M_I.Store::total            2                      
system.ruby.L1Cache_Controller.M_I.WB_Ack |       71619     43.71%     43.71% |       92241     56.29%    100.00%
system.ruby.L1Cache_Controller.M_I.WB_Ack::total       163860                      
system.ruby.L2Cache_Controller.L1_GET_INSTR |       68148     49.82%     49.82% |       68652     50.18%    100.00%
system.ruby.L2Cache_Controller.L1_GET_INSTR::total       136800                      
system.ruby.L2Cache_Controller.L1_GETS   |       63357     48.68%     48.68% |       66798     51.32%    100.00%
system.ruby.L2Cache_Controller.L1_GETS::total       130155                      
system.ruby.L2Cache_Controller.L1_GETSP  |      823858    100.00%    100.00% |          13      0.00%    100.00%
system.ruby.L2Cache_Controller.L1_GETSP::total       823871                      
system.ruby.L2Cache_Controller.L1_GETX   |       27676     50.16%     50.16% |       27500     49.84%    100.00%
system.ruby.L2Cache_Controller.L1_GETX::total        55176                      
system.ruby.L2Cache_Controller.L1_UPGRADE |         663     50.38%     50.38% |         653     49.62%    100.00%
system.ruby.L2Cache_Controller.L1_UPGRADE::total         1316                      
system.ruby.L2Cache_Controller.L1_PUTX   |       78546     47.93%     47.93% |       85314     52.07%    100.00%
system.ruby.L2Cache_Controller.L1_PUTX::total       163860                      
system.ruby.L2Cache_Controller.L2_Replacement |          18     62.07%     62.07% |          11     37.93%    100.00%
system.ruby.L2Cache_Controller.L2_Replacement::total           29                      
system.ruby.L2Cache_Controller.L2_Replacement_clean |          29     65.91%     65.91% |          15     34.09%    100.00%
system.ruby.L2Cache_Controller.L2_Replacement_clean::total           44                      
system.ruby.L2Cache_Controller.Mem_Data  |      845284     97.55%     97.55% |       21220      2.45%    100.00%
system.ruby.L2Cache_Controller.Mem_Data::total       866504                      
system.ruby.L2Cache_Controller.Mem_Datap |      823857    100.00%    100.00% |          13      0.00%    100.00%
system.ruby.L2Cache_Controller.Mem_Datap::total       823870                      
system.ruby.L2Cache_Controller.Mem_Ack   |          47     64.38%     64.38% |          26     35.62%    100.00%
system.ruby.L2Cache_Controller.Mem_Ack::total           73                      
system.ruby.L2Cache_Controller.WB_Data   |         564     49.43%     49.43% |         577     50.57%    100.00%
system.ruby.L2Cache_Controller.WB_Data::total         1141                      
system.ruby.L2Cache_Controller.WB_Data_clean |         480     49.23%     49.23% |         495     50.77%    100.00%
system.ruby.L2Cache_Controller.WB_Data_clean::total          975                      
system.ruby.L2Cache_Controller.Ack       |           0      0.00%      0.00% |           4    100.00%    100.00%
system.ruby.L2Cache_Controller.Ack::total            4                      
system.ruby.L2Cache_Controller.Ack_all   |          15     65.22%     65.22% |           8     34.78%    100.00%
system.ruby.L2Cache_Controller.Ack_all::total           23                      
system.ruby.L2Cache_Controller.Unblock   |        1044     49.34%     49.34% |        1072     50.66%    100.00%
system.ruby.L2Cache_Controller.Unblock::total         2116                      
system.ruby.L2Cache_Controller.Exclusive_Unblock |       80155     47.98%     47.98% |       86910     52.02%    100.00%
system.ruby.L2Cache_Controller.Exclusive_Unblock::total       167065                      
system.ruby.L2Cache_Controller.NP.L1_GET_INSTR |        6078     49.78%     49.78% |        6131     50.22%    100.00%
system.ruby.L2Cache_Controller.NP.L1_GET_INSTR::total        12209                      
system.ruby.L2Cache_Controller.NP.L1_GETS |        7628     51.11%     51.11% |        7298     48.89%    100.00%
system.ruby.L2Cache_Controller.NP.L1_GETS::total        14926                      
system.ruby.L2Cache_Controller.NP.L1_GETSP |      823858    100.00%    100.00% |          13      0.00%    100.00%
system.ruby.L2Cache_Controller.NP.L1_GETSP::total       823871                      
system.ruby.L2Cache_Controller.NP.L1_GETX |        7721     49.82%     49.82% |        7778     50.18%    100.00%
system.ruby.L2Cache_Controller.NP.L1_GETX::total        15499                      
system.ruby.L2Cache_Controller.NP.Mem_Data |      823857    100.00%    100.00% |          13      0.00%    100.00%
system.ruby.L2Cache_Controller.NP.Mem_Data::total       823870                      
system.ruby.L2Cache_Controller.SS.L1_GET_INSTR |       62055     49.82%     49.82% |       62506     50.18%    100.00%
system.ruby.L2Cache_Controller.SS.L1_GET_INSTR::total       124561                      
system.ruby.L2Cache_Controller.SS.L1_GETS |       10483     60.09%     60.09% |        6963     39.91%    100.00%
system.ruby.L2Cache_Controller.SS.L1_GETS::total        17446                      
system.ruby.L2Cache_Controller.SS.L1_GETX |          29     41.43%     41.43% |          41     58.57%    100.00%
system.ruby.L2Cache_Controller.SS.L1_GETX::total           70                      
system.ruby.L2Cache_Controller.SS.L1_UPGRADE |         661     50.30%     50.30% |         653     49.70%    100.00%
system.ruby.L2Cache_Controller.SS.L1_UPGRADE::total         1314                      
system.ruby.L2Cache_Controller.SS.L2_Replacement_clean |          15     65.22%     65.22% |           8     34.78%    100.00%
system.ruby.L2Cache_Controller.SS.L2_Replacement_clean::total           23                      
system.ruby.L2Cache_Controller.M.L1_GET_INSTR |           8     44.44%     44.44% |          10     55.56%    100.00%
system.ruby.L2Cache_Controller.M.L1_GET_INSTR::total           18                      
system.ruby.L2Cache_Controller.M.L1_GETS |       44190     46.20%     46.20% |       51460     53.80%    100.00%
system.ruby.L2Cache_Controller.M.L1_GETS::total        95650                      
system.ruby.L2Cache_Controller.M.L1_GETX |       19810     50.27%     50.27% |       19597     49.73%    100.00%
system.ruby.L2Cache_Controller.M.L1_GETX::total        39407                      
system.ruby.L2Cache_Controller.M.L2_Replacement |          18     62.07%     62.07% |          11     37.93%    100.00%
system.ruby.L2Cache_Controller.M.L2_Replacement::total           29                      
system.ruby.L2Cache_Controller.M.L2_Replacement_clean |          14     66.67%     66.67% |           7     33.33%    100.00%
system.ruby.L2Cache_Controller.M.L2_Replacement_clean::total           21                      
system.ruby.L2Cache_Controller.MT.L1_GET_INSTR |           2    100.00%    100.00% |           0      0.00%    100.00%
system.ruby.L2Cache_Controller.MT.L1_GET_INSTR::total            2                      
system.ruby.L2Cache_Controller.MT.L1_GETS |        1042     49.29%     49.29% |        1072     50.71%    100.00%
system.ruby.L2Cache_Controller.MT.L1_GETS::total         2114                      
system.ruby.L2Cache_Controller.MT.L1_GETX |         116     58.00%     58.00% |          84     42.00%    100.00%
system.ruby.L2Cache_Controller.MT.L1_GETX::total          200                      
system.ruby.L2Cache_Controller.MT.L1_PUTX |       78546     47.93%     47.93% |       85314     52.07%    100.00%
system.ruby.L2Cache_Controller.MT.L1_PUTX::total       163860                      
system.ruby.L2Cache_Controller.M_I.Mem_Ack |          47     64.38%     64.38% |          26     35.62%    100.00%
system.ruby.L2Cache_Controller.M_I.Mem_Ack::total           73                      
system.ruby.L2Cache_Controller.I_I.Ack   |           0      0.00%      0.00% |           4    100.00%    100.00%
system.ruby.L2Cache_Controller.I_I.Ack::total            4                      
system.ruby.L2Cache_Controller.I_I.Ack_all |          15     65.22%     65.22% |           8     34.78%    100.00%
system.ruby.L2Cache_Controller.I_I.Ack_all::total           23                      
system.ruby.L2Cache_Controller.ISS.L1_GETS |           0      0.00%      0.00% |           1    100.00%    100.00%
system.ruby.L2Cache_Controller.ISS.L1_GETS::total            1                      
system.ruby.L2Cache_Controller.ISS.Mem_Data |        7628     51.11%     51.11% |        7297     48.89%    100.00%
system.ruby.L2Cache_Controller.ISS.Mem_Data::total        14925                      
system.ruby.L2Cache_Controller.IS.L1_GET_INSTR |           5     50.00%     50.00% |           5     50.00%    100.00%
system.ruby.L2Cache_Controller.IS.L1_GET_INSTR::total           10                      
system.ruby.L2Cache_Controller.IS.Mem_Data |        6078     49.78%     49.78% |        6132     50.22%    100.00%
system.ruby.L2Cache_Controller.IS.Mem_Data::total        12210                      
system.ruby.L2Cache_Controller.IS.Mem_Datap |      823857    100.00%    100.00% |          13      0.00%    100.00%
system.ruby.L2Cache_Controller.IS.Mem_Datap::total       823870                      
system.ruby.L2Cache_Controller.IM.Mem_Data |        7721     49.82%     49.82% |        7778     50.18%    100.00%
system.ruby.L2Cache_Controller.IM.Mem_Data::total        15499                      
system.ruby.L2Cache_Controller.SS_MB.L1_GETS |          10    100.00%    100.00% |           0      0.00%    100.00%
system.ruby.L2Cache_Controller.SS_MB.L1_GETS::total           10                      
system.ruby.L2Cache_Controller.SS_MB.L1_UPGRADE |           2    100.00%    100.00% |           0      0.00%    100.00%
system.ruby.L2Cache_Controller.SS_MB.L1_UPGRADE::total            2                      
system.ruby.L2Cache_Controller.SS_MB.Exclusive_Unblock |         690     49.86%     49.86% |         694     50.14%    100.00%
system.ruby.L2Cache_Controller.SS_MB.Exclusive_Unblock::total         1384                      
system.ruby.L2Cache_Controller.MT_MB.L1_GETS |           4     50.00%     50.00% |           4     50.00%    100.00%
system.ruby.L2Cache_Controller.MT_MB.L1_GETS::total            8                      
system.ruby.L2Cache_Controller.MT_MB.Exclusive_Unblock |       79465     47.96%     47.96% |       86216     52.04%    100.00%
system.ruby.L2Cache_Controller.MT_MB.Exclusive_Unblock::total       165681                      
system.ruby.L2Cache_Controller.MT_IIB.WB_Data |         562     49.38%     49.38% |         576     50.62%    100.00%
system.ruby.L2Cache_Controller.MT_IIB.WB_Data::total         1138                      
system.ruby.L2Cache_Controller.MT_IIB.WB_Data_clean |         479     49.38%     49.38% |         491     50.62%    100.00%
system.ruby.L2Cache_Controller.MT_IIB.WB_Data_clean::total          970                      
system.ruby.L2Cache_Controller.MT_IIB.Unblock |           3     37.50%     37.50% |           5     62.50%    100.00%
system.ruby.L2Cache_Controller.MT_IIB.Unblock::total            8                      
system.ruby.L2Cache_Controller.MT_IB.WB_Data |           2     66.67%     66.67% |           1     33.33%    100.00%
system.ruby.L2Cache_Controller.MT_IB.WB_Data::total            3                      
system.ruby.L2Cache_Controller.MT_IB.WB_Data_clean |           1     20.00%     20.00% |           4     80.00%    100.00%
system.ruby.L2Cache_Controller.MT_IB.WB_Data_clean::total            5                      
system.ruby.L2Cache_Controller.MT_SB.Unblock |        1041     49.38%     49.38% |        1067     50.62%    100.00%
system.ruby.L2Cache_Controller.MT_SB.Unblock::total         2108                      
system.switch_cpus0.kern.inst.arm                   0                       # number of arm instructions executed
system.switch_cpus0.kern.inst.quiesce               0                       # number of quiesce instructions executed
system.switch_cpus1.kern.inst.arm                   0                       # number of arm instructions executed
system.switch_cpus1.kern.inst.quiesce               0                       # number of quiesce instructions executed

---------- End Simulation Statistics   ----------
