
---------- Begin Simulation Statistics ----------
sim_seconds                                  0.017514                       # Number of seconds simulated
sim_ticks                                 17514127000                       # Number of ticks simulated
final_tick                               2382504932000                       # Number of ticks from beginning of simulation (restored from checkpoints and never reset)
sim_freq                                 1000000000000                       # Frequency of simulated ticks
host_inst_rate                                 230437                       # Simulator instruction rate (inst/s)
host_op_rate                                   414402                       # Simulator op (including micro ops) rate (op/s)
host_tick_rate                               25766619                       # Simulator tick rate (ticks/s)
host_mem_usage                                3529916                       # Number of bytes of host memory used
host_seconds                                   679.72                       # Real time elapsed on the host
sim_insts                                   156632744                       # Number of instructions simulated
sim_ops                                     281677952                       # Number of ops (including micro ops) simulated
system.voltage_domain.voltage                       1                       # Voltage in Volts
system.clk_domain.clock                          1000                       # Clock period in ticks
system.mem_ctrls0.pwrStateResidencyTicks::UNDEFINED 2382504932000                       # Cumulative time (in ticks) in various power states
system.mem_ctrls0.bytes_read::.cpu0.inst           64                       # Number of bytes read from this memory
system.mem_ctrls0.bytes_read::.cpu0.data           16                       # Number of bytes read from this memory
system.mem_ctrls0.bytes_read::.cpu1.inst           72                       # Number of bytes read from this memory
system.mem_ctrls0.bytes_read::.cpu1.data           24                       # Number of bytes read from this memory
system.mem_ctrls0.bytes_read::.ruby.dir_cntrl0      1305728                       # Number of bytes read from this memory
system.mem_ctrls0.bytes_read::total           1305904                       # Number of bytes read from this memory
system.mem_ctrls0.bytes_inst_read::.cpu0.inst           64                       # Number of instructions bytes read from this memory
system.mem_ctrls0.bytes_inst_read::.cpu1.inst           72                       # Number of instructions bytes read from this memory
system.mem_ctrls0.bytes_inst_read::total          136                       # Number of instructions bytes read from this memory
system.mem_ctrls0.bytes_written::.cpu1.data           16                       # Number of bytes written to this memory
system.mem_ctrls0.bytes_written::.ruby.dir_cntrl0       216512                       # Number of bytes written to this memory
system.mem_ctrls0.bytes_written::total         216528                       # Number of bytes written to this memory
system.mem_ctrls0.num_reads::.cpu0.inst             8                       # Number of read requests responded to by this memory
system.mem_ctrls0.num_reads::.cpu0.data             2                       # Number of read requests responded to by this memory
system.mem_ctrls0.num_reads::.cpu1.inst             9                       # Number of read requests responded to by this memory
system.mem_ctrls0.num_reads::.cpu1.data             3                       # Number of read requests responded to by this memory
system.mem_ctrls0.num_reads::.ruby.dir_cntrl0        20402                       # Number of read requests responded to by this memory
system.mem_ctrls0.num_reads::total              20424                       # Number of read requests responded to by this memory
system.mem_ctrls0.num_writes::.cpu1.data            2                       # Number of write requests responded to by this memory
system.mem_ctrls0.num_writes::.ruby.dir_cntrl0         3383                       # Number of write requests responded to by this memory
system.mem_ctrls0.num_writes::total              3385                       # Number of write requests responded to by this memory
system.mem_ctrls0.bw_read::.cpu0.inst            3654                       # Total read bandwidth from this memory (bytes/s)
system.mem_ctrls0.bw_read::.cpu0.data             914                       # Total read bandwidth from this memory (bytes/s)
system.mem_ctrls0.bw_read::.cpu1.inst            4111                       # Total read bandwidth from this memory (bytes/s)
system.mem_ctrls0.bw_read::.cpu1.data            1370                       # Total read bandwidth from this memory (bytes/s)
system.mem_ctrls0.bw_read::.ruby.dir_cntrl0     74552845                       # Total read bandwidth from this memory (bytes/s)
system.mem_ctrls0.bw_read::total             74562894                       # Total read bandwidth from this memory (bytes/s)
system.mem_ctrls0.bw_inst_read::.cpu0.inst         3654                       # Instruction read bandwidth from this memory (bytes/s)
system.mem_ctrls0.bw_inst_read::.cpu1.inst         4111                       # Instruction read bandwidth from this memory (bytes/s)
system.mem_ctrls0.bw_inst_read::total            7765                       # Instruction read bandwidth from this memory (bytes/s)
system.mem_ctrls0.bw_write::.cpu1.data            914                       # Write bandwidth from this memory (bytes/s)
system.mem_ctrls0.bw_write::.ruby.dir_cntrl0     12362135                       # Write bandwidth from this memory (bytes/s)
system.mem_ctrls0.bw_write::total            12363048                       # Write bandwidth from this memory (bytes/s)
system.mem_ctrls0.bw_total::.cpu0.inst           3654                       # Total bandwidth to/from this memory (bytes/s)
system.mem_ctrls0.bw_total::.cpu0.data            914                       # Total bandwidth to/from this memory (bytes/s)
system.mem_ctrls0.bw_total::.cpu1.inst           4111                       # Total bandwidth to/from this memory (bytes/s)
system.mem_ctrls0.bw_total::.cpu1.data           2284                       # Total bandwidth to/from this memory (bytes/s)
system.mem_ctrls0.bw_total::.ruby.dir_cntrl0     86914980                       # Total bandwidth to/from this memory (bytes/s)
system.mem_ctrls0.bw_total::total            86925943                       # Total bandwidth to/from this memory (bytes/s)
system.mem_ctrls0.avgPriority_.ruby.dir_cntrl0::samples     23778.00                       # Average QoS priority value for accepted requests
system.mem_ctrls0.priorityMinLatency     0.000000018750                       # per QoS priority minimum request to response latency (s)
system.mem_ctrls0.priorityMaxLatency     0.007044072750                       # per QoS priority maximum request to response latency (s)
system.mem_ctrls0.numReadWriteTurnArounds          117                       # Number of turnarounds from READ to WRITE
system.mem_ctrls0.numWriteReadTurnArounds          117                       # Number of turnarounds from WRITE to READ
system.mem_ctrls0.numStayReadState              43504                       # Number of times bus staying in READ state
system.mem_ctrls0.numStayWriteState              3371                       # Number of times bus staying in WRITE state
system.mem_ctrls0.readReqs                      20402                       # Number of read requests accepted
system.mem_ctrls0.writeReqs                      3383                       # Number of write requests accepted
system.mem_ctrls0.readBursts                    20402                       # Number of DRAM read bursts, including those serviced by the write queue
system.mem_ctrls0.writeBursts                    3383                       # Number of DRAM write bursts, including those merged in the write queue
system.mem_ctrls0.bytesReadDRAM               1305280                       # Total number of bytes read from DRAM
system.mem_ctrls0.bytesReadWrQ                    448                       # Total number of bytes read from write queue
system.mem_ctrls0.bytesWritten                 214464                       # Total number of bytes written to DRAM
system.mem_ctrls0.bytesReadSys                1305728                       # Total read bytes from the system interface side
system.mem_ctrls0.bytesWrittenSys              216512                       # Total written bytes from the system interface side
system.mem_ctrls0.servicedByWrQ                     7                       # Number of DRAM read bursts serviced by the write queue
system.mem_ctrls0.mergedWrBursts                    0                       # Number of DRAM write bursts merged with an existing one
system.mem_ctrls0.neitherReadNorWriteReqs            0                       # Number of requests that are neither read nor write
system.mem_ctrls0.perBankRdBursts::0             1205                       # Per bank write bursts
system.mem_ctrls0.perBankRdBursts::1             1426                       # Per bank write bursts
system.mem_ctrls0.perBankRdBursts::2             1477                       # Per bank write bursts
system.mem_ctrls0.perBankRdBursts::3             1370                       # Per bank write bursts
system.mem_ctrls0.perBankRdBursts::4             1419                       # Per bank write bursts
system.mem_ctrls0.perBankRdBursts::5             1373                       # Per bank write bursts
system.mem_ctrls0.perBankRdBursts::6             1192                       # Per bank write bursts
system.mem_ctrls0.perBankRdBursts::7             1413                       # Per bank write bursts
system.mem_ctrls0.perBankRdBursts::8             1054                       # Per bank write bursts
system.mem_ctrls0.perBankRdBursts::9             1197                       # Per bank write bursts
system.mem_ctrls0.perBankRdBursts::10            1005                       # Per bank write bursts
system.mem_ctrls0.perBankRdBursts::11             945                       # Per bank write bursts
system.mem_ctrls0.perBankRdBursts::12            1848                       # Per bank write bursts
system.mem_ctrls0.perBankRdBursts::13            1163                       # Per bank write bursts
system.mem_ctrls0.perBankRdBursts::14            1331                       # Per bank write bursts
system.mem_ctrls0.perBankRdBursts::15             977                       # Per bank write bursts
system.mem_ctrls0.perBankWrBursts::0              288                       # Per bank write bursts
system.mem_ctrls0.perBankWrBursts::1              132                       # Per bank write bursts
system.mem_ctrls0.perBankWrBursts::2              321                       # Per bank write bursts
system.mem_ctrls0.perBankWrBursts::3              256                       # Per bank write bursts
system.mem_ctrls0.perBankWrBursts::4              193                       # Per bank write bursts
system.mem_ctrls0.perBankWrBursts::5              192                       # Per bank write bursts
system.mem_ctrls0.perBankWrBursts::6              448                       # Per bank write bursts
system.mem_ctrls0.perBankWrBursts::7              161                       # Per bank write bursts
system.mem_ctrls0.perBankWrBursts::8              160                       # Per bank write bursts
system.mem_ctrls0.perBankWrBursts::9              176                       # Per bank write bursts
system.mem_ctrls0.perBankWrBursts::10             128                       # Per bank write bursts
system.mem_ctrls0.perBankWrBursts::11             256                       # Per bank write bursts
system.mem_ctrls0.perBankWrBursts::12             160                       # Per bank write bursts
system.mem_ctrls0.perBankWrBursts::13              96                       # Per bank write bursts
system.mem_ctrls0.perBankWrBursts::14             160                       # Per bank write bursts
system.mem_ctrls0.perBankWrBursts::15             224                       # Per bank write bursts
system.mem_ctrls0.numRdRetry                        0                       # Number of times read queue was full causing retry
system.mem_ctrls0.numWrRetry                       50                       # Number of times write queue was full causing retry
system.mem_ctrls0.totGap                  16783566000                       # Total gap between requests
system.mem_ctrls0.readPktSize::0                    0                       # Read request sizes (log2)
system.mem_ctrls0.readPktSize::1                    0                       # Read request sizes (log2)
system.mem_ctrls0.readPktSize::2                    0                       # Read request sizes (log2)
system.mem_ctrls0.readPktSize::3                    0                       # Read request sizes (log2)
system.mem_ctrls0.readPktSize::4                    0                       # Read request sizes (log2)
system.mem_ctrls0.readPktSize::5                    0                       # Read request sizes (log2)
system.mem_ctrls0.readPktSize::6                20402                       # Read request sizes (log2)
system.mem_ctrls0.writePktSize::0                   0                       # Write request sizes (log2)
system.mem_ctrls0.writePktSize::1                   0                       # Write request sizes (log2)
system.mem_ctrls0.writePktSize::2                   0                       # Write request sizes (log2)
system.mem_ctrls0.writePktSize::3                   0                       # Write request sizes (log2)
system.mem_ctrls0.writePktSize::4                   0                       # Write request sizes (log2)
system.mem_ctrls0.writePktSize::5                   0                       # Write request sizes (log2)
system.mem_ctrls0.writePktSize::6                3383                       # Write request sizes (log2)
system.mem_ctrls0.rdQLenPdf::0                  16965                       # What read queue length does an incoming req see
system.mem_ctrls0.rdQLenPdf::1                   2747                       # What read queue length does an incoming req see
system.mem_ctrls0.rdQLenPdf::2                    557                       # What read queue length does an incoming req see
system.mem_ctrls0.rdQLenPdf::3                    101                       # What read queue length does an incoming req see
system.mem_ctrls0.rdQLenPdf::4                     23                       # What read queue length does an incoming req see
system.mem_ctrls0.rdQLenPdf::5                      2                       # What read queue length does an incoming req see
system.mem_ctrls0.rdQLenPdf::6                      0                       # What read queue length does an incoming req see
system.mem_ctrls0.rdQLenPdf::7                      0                       # What read queue length does an incoming req see
system.mem_ctrls0.rdQLenPdf::8                      0                       # What read queue length does an incoming req see
system.mem_ctrls0.rdQLenPdf::9                      0                       # What read queue length does an incoming req see
system.mem_ctrls0.rdQLenPdf::10                     0                       # What read queue length does an incoming req see
system.mem_ctrls0.rdQLenPdf::11                     0                       # What read queue length does an incoming req see
system.mem_ctrls0.rdQLenPdf::12                     0                       # What read queue length does an incoming req see
system.mem_ctrls0.rdQLenPdf::13                     0                       # What read queue length does an incoming req see
system.mem_ctrls0.rdQLenPdf::14                     0                       # What read queue length does an incoming req see
system.mem_ctrls0.rdQLenPdf::15                     0                       # What read queue length does an incoming req see
system.mem_ctrls0.rdQLenPdf::16                     0                       # What read queue length does an incoming req see
system.mem_ctrls0.rdQLenPdf::17                     0                       # What read queue length does an incoming req see
system.mem_ctrls0.rdQLenPdf::18                     0                       # What read queue length does an incoming req see
system.mem_ctrls0.rdQLenPdf::19                     0                       # What read queue length does an incoming req see
system.mem_ctrls0.rdQLenPdf::20                     0                       # What read queue length does an incoming req see
system.mem_ctrls0.rdQLenPdf::21                     0                       # What read queue length does an incoming req see
system.mem_ctrls0.rdQLenPdf::22                     0                       # What read queue length does an incoming req see
system.mem_ctrls0.rdQLenPdf::23                     0                       # What read queue length does an incoming req see
system.mem_ctrls0.rdQLenPdf::24                     0                       # What read queue length does an incoming req see
system.mem_ctrls0.rdQLenPdf::25                     0                       # What read queue length does an incoming req see
system.mem_ctrls0.rdQLenPdf::26                     0                       # What read queue length does an incoming req see
system.mem_ctrls0.rdQLenPdf::27                     0                       # What read queue length does an incoming req see
system.mem_ctrls0.rdQLenPdf::28                     0                       # What read queue length does an incoming req see
system.mem_ctrls0.rdQLenPdf::29                     0                       # What read queue length does an incoming req see
system.mem_ctrls0.rdQLenPdf::30                     0                       # What read queue length does an incoming req see
system.mem_ctrls0.rdQLenPdf::31                     0                       # What read queue length does an incoming req see
system.mem_ctrls0.wrQLenPdf::0                      1                       # What write queue length does an incoming req see
system.mem_ctrls0.wrQLenPdf::1                      1                       # What write queue length does an incoming req see
system.mem_ctrls0.wrQLenPdf::2                      1                       # What write queue length does an incoming req see
system.mem_ctrls0.wrQLenPdf::3                      1                       # What write queue length does an incoming req see
system.mem_ctrls0.wrQLenPdf::4                      1                       # What write queue length does an incoming req see
system.mem_ctrls0.wrQLenPdf::5                      1                       # What write queue length does an incoming req see
system.mem_ctrls0.wrQLenPdf::6                      1                       # What write queue length does an incoming req see
system.mem_ctrls0.wrQLenPdf::7                      1                       # What write queue length does an incoming req see
system.mem_ctrls0.wrQLenPdf::8                      1                       # What write queue length does an incoming req see
system.mem_ctrls0.wrQLenPdf::9                      1                       # What write queue length does an incoming req see
system.mem_ctrls0.wrQLenPdf::10                     1                       # What write queue length does an incoming req see
system.mem_ctrls0.wrQLenPdf::11                     1                       # What write queue length does an incoming req see
system.mem_ctrls0.wrQLenPdf::12                     1                       # What write queue length does an incoming req see
system.mem_ctrls0.wrQLenPdf::13                     1                       # What write queue length does an incoming req see
system.mem_ctrls0.wrQLenPdf::14                     1                       # What write queue length does an incoming req see
system.mem_ctrls0.wrQLenPdf::15                    75                       # What write queue length does an incoming req see
system.mem_ctrls0.wrQLenPdf::16                    75                       # What write queue length does an incoming req see
system.mem_ctrls0.wrQLenPdf::17                    75                       # What write queue length does an incoming req see
system.mem_ctrls0.wrQLenPdf::18                    75                       # What write queue length does an incoming req see
system.mem_ctrls0.wrQLenPdf::19                    75                       # What write queue length does an incoming req see
system.mem_ctrls0.wrQLenPdf::20                    75                       # What write queue length does an incoming req see
system.mem_ctrls0.wrQLenPdf::21                    75                       # What write queue length does an incoming req see
system.mem_ctrls0.wrQLenPdf::22                    75                       # What write queue length does an incoming req see
system.mem_ctrls0.wrQLenPdf::23                    75                       # What write queue length does an incoming req see
system.mem_ctrls0.wrQLenPdf::24                    75                       # What write queue length does an incoming req see
system.mem_ctrls0.wrQLenPdf::25                    77                       # What write queue length does an incoming req see
system.mem_ctrls0.wrQLenPdf::26                    78                       # What write queue length does an incoming req see
system.mem_ctrls0.wrQLenPdf::27                   198                       # What write queue length does an incoming req see
system.mem_ctrls0.wrQLenPdf::28                   203                       # What write queue length does an incoming req see
system.mem_ctrls0.wrQLenPdf::29                   151                       # What write queue length does an incoming req see
system.mem_ctrls0.wrQLenPdf::30                   223                       # What write queue length does an incoming req see
system.mem_ctrls0.wrQLenPdf::31                   270                       # What write queue length does an incoming req see
system.mem_ctrls0.wrQLenPdf::32                   207                       # What write queue length does an incoming req see
system.mem_ctrls0.wrQLenPdf::33                   167                       # What write queue length does an incoming req see
system.mem_ctrls0.wrQLenPdf::34                   182                       # What write queue length does an incoming req see
system.mem_ctrls0.wrQLenPdf::35                    77                       # What write queue length does an incoming req see
system.mem_ctrls0.wrQLenPdf::36                    73                       # What write queue length does an incoming req see
system.mem_ctrls0.wrQLenPdf::37                    86                       # What write queue length does an incoming req see
system.mem_ctrls0.wrQLenPdf::38                    72                       # What write queue length does an incoming req see
system.mem_ctrls0.wrQLenPdf::39                    57                       # What write queue length does an incoming req see
system.mem_ctrls0.wrQLenPdf::40                    59                       # What write queue length does an incoming req see
system.mem_ctrls0.wrQLenPdf::41                    46                       # What write queue length does an incoming req see
system.mem_ctrls0.wrQLenPdf::42                    48                       # What write queue length does an incoming req see
system.mem_ctrls0.wrQLenPdf::43                    52                       # What write queue length does an incoming req see
system.mem_ctrls0.wrQLenPdf::44                    36                       # What write queue length does an incoming req see
system.mem_ctrls0.wrQLenPdf::45                    34                       # What write queue length does an incoming req see
system.mem_ctrls0.wrQLenPdf::46                    35                       # What write queue length does an incoming req see
system.mem_ctrls0.wrQLenPdf::47                    30                       # What write queue length does an incoming req see
system.mem_ctrls0.wrQLenPdf::48                    16                       # What write queue length does an incoming req see
system.mem_ctrls0.wrQLenPdf::49                    12                       # What write queue length does an incoming req see
system.mem_ctrls0.wrQLenPdf::50                     9                       # What write queue length does an incoming req see
system.mem_ctrls0.wrQLenPdf::51                     7                       # What write queue length does an incoming req see
system.mem_ctrls0.wrQLenPdf::52                     6                       # What write queue length does an incoming req see
system.mem_ctrls0.wrQLenPdf::53                     6                       # What write queue length does an incoming req see
system.mem_ctrls0.wrQLenPdf::54                     7                       # What write queue length does an incoming req see
system.mem_ctrls0.wrQLenPdf::55                     5                       # What write queue length does an incoming req see
system.mem_ctrls0.wrQLenPdf::56                     4                       # What write queue length does an incoming req see
system.mem_ctrls0.wrQLenPdf::57                     5                       # What write queue length does an incoming req see
system.mem_ctrls0.wrQLenPdf::58                     5                       # What write queue length does an incoming req see
system.mem_ctrls0.wrQLenPdf::59                     4                       # What write queue length does an incoming req see
system.mem_ctrls0.wrQLenPdf::60                     5                       # What write queue length does an incoming req see
system.mem_ctrls0.wrQLenPdf::61                     5                       # What write queue length does an incoming req see
system.mem_ctrls0.wrQLenPdf::62                     5                       # What write queue length does an incoming req see
system.mem_ctrls0.wrQLenPdf::63                    56                       # What write queue length does an incoming req see
system.mem_ctrls0.bytesPerActivate::samples         7358                       # Bytes accessed per row activation
system.mem_ctrls0.bytesPerActivate::mean   206.543082                       # Bytes accessed per row activation
system.mem_ctrls0.bytesPerActivate::gmean   120.482419                       # Bytes accessed per row activation
system.mem_ctrls0.bytesPerActivate::stdev   276.531128                       # Bytes accessed per row activation
system.mem_ctrls0.bytesPerActivate::0-127         4307     58.53%     58.53% # Bytes accessed per row activation
system.mem_ctrls0.bytesPerActivate::128-255         1458     19.82%     78.35% # Bytes accessed per row activation
system.mem_ctrls0.bytesPerActivate::256-383          479      6.51%     84.86% # Bytes accessed per row activation
system.mem_ctrls0.bytesPerActivate::384-511          214      2.91%     87.77% # Bytes accessed per row activation
system.mem_ctrls0.bytesPerActivate::512-639          140      1.90%     89.67% # Bytes accessed per row activation
system.mem_ctrls0.bytesPerActivate::640-767           81      1.10%     90.77% # Bytes accessed per row activation
system.mem_ctrls0.bytesPerActivate::768-895           60      0.82%     91.59% # Bytes accessed per row activation
system.mem_ctrls0.bytesPerActivate::896-1023           90      1.22%     92.81% # Bytes accessed per row activation
system.mem_ctrls0.bytesPerActivate::1024-1151          529      7.19%    100.00% # Bytes accessed per row activation
system.mem_ctrls0.bytesPerActivate::total         7358                       # Bytes accessed per row activation
system.mem_ctrls0.rdPerTurnAround::samples          117                       # Reads before turning the bus around for writes
system.mem_ctrls0.rdPerTurnAround::mean    170.205128                       # Reads before turning the bus around for writes
system.mem_ctrls0.rdPerTurnAround::stdev  1521.756996                       # Reads before turning the bus around for writes
system.mem_ctrls0.rdPerTurnAround::0-511          114     97.44%     97.44% # Reads before turning the bus around for writes
system.mem_ctrls0.rdPerTurnAround::512-1023            1      0.85%     98.29% # Reads before turning the bus around for writes
system.mem_ctrls0.rdPerTurnAround::1536-2047            1      0.85%     99.15% # Reads before turning the bus around for writes
system.mem_ctrls0.rdPerTurnAround::15872-16383            1      0.85%    100.00% # Reads before turning the bus around for writes
system.mem_ctrls0.rdPerTurnAround::total          117                       # Reads before turning the bus around for writes
system.mem_ctrls0.wrPerTurnAround::samples          117                       # Writes before turning the bus around for reads
system.mem_ctrls0.wrPerTurnAround::mean     28.641026                       # Writes before turning the bus around for reads
system.mem_ctrls0.wrPerTurnAround::gmean    26.858824                       # Writes before turning the bus around for reads
system.mem_ctrls0.wrPerTurnAround::stdev    11.436075                       # Writes before turning the bus around for reads
system.mem_ctrls0.wrPerTurnAround::16-17           23     19.66%     19.66% # Writes before turning the bus around for reads
system.mem_ctrls0.wrPerTurnAround::18-19            8      6.84%     26.50% # Writes before turning the bus around for reads
system.mem_ctrls0.wrPerTurnAround::20-21            3      2.56%     29.06% # Writes before turning the bus around for reads
system.mem_ctrls0.wrPerTurnAround::22-23            9      7.69%     36.75% # Writes before turning the bus around for reads
system.mem_ctrls0.wrPerTurnAround::24-25            5      4.27%     41.03% # Writes before turning the bus around for reads
system.mem_ctrls0.wrPerTurnAround::26-27            4      3.42%     44.44% # Writes before turning the bus around for reads
system.mem_ctrls0.wrPerTurnAround::28-29            2      1.71%     46.15% # Writes before turning the bus around for reads
system.mem_ctrls0.wrPerTurnAround::30-31            5      4.27%     50.43% # Writes before turning the bus around for reads
system.mem_ctrls0.wrPerTurnAround::32-33           44     37.61%     88.03% # Writes before turning the bus around for reads
system.mem_ctrls0.wrPerTurnAround::34-35            2      1.71%     89.74% # Writes before turning the bus around for reads
system.mem_ctrls0.wrPerTurnAround::38-39            1      0.85%     90.60% # Writes before turning the bus around for reads
system.mem_ctrls0.wrPerTurnAround::40-41            2      1.71%     92.31% # Writes before turning the bus around for reads
system.mem_ctrls0.wrPerTurnAround::44-45            1      0.85%     93.16% # Writes before turning the bus around for reads
system.mem_ctrls0.wrPerTurnAround::46-47            4      3.42%     96.58% # Writes before turning the bus around for reads
system.mem_ctrls0.wrPerTurnAround::48-49            1      0.85%     97.44% # Writes before turning the bus around for reads
system.mem_ctrls0.wrPerTurnAround::64-65            1      0.85%     98.29% # Writes before turning the bus around for reads
system.mem_ctrls0.wrPerTurnAround::66-67            1      0.85%     99.15% # Writes before turning the bus around for reads
system.mem_ctrls0.wrPerTurnAround::96-97            1      0.85%    100.00% # Writes before turning the bus around for reads
system.mem_ctrls0.wrPerTurnAround::total          117                       # Writes before turning the bus around for reads
system.mem_ctrls0.masterReadBytes::.ruby.dir_cntrl0      1305280                       # Per-master bytes read from memory
system.mem_ctrls0.masterWriteBytes::.ruby.dir_cntrl0       214464                       # Per-master bytes write to memory
system.mem_ctrls0.masterReadRate::.ruby.dir_cntrl0 74527265.903690204024                       # Per-master bytes read from memory rate (Bytes/sec)
system.mem_ctrls0.masterWriteRate::.ruby.dir_cntrl0 12245200.688564151525                       # Per-master bytes write to memory rate (Bytes/sec)
system.mem_ctrls0.masterReadAccesses::.ruby.dir_cntrl0        20402                       # Per-master read serviced memory accesses
system.mem_ctrls0.masterWriteAccesses::.ruby.dir_cntrl0         3383                       # Per-master write serviced memory accesses
system.mem_ctrls0.masterReadTotalLat::.ruby.dir_cntrl0    973731478                       # Per-master read total memory access latency
system.mem_ctrls0.masterWriteTotalLat::.ruby.dir_cntrl0  82060222997                       # Per-master write total memory access latency
system.mem_ctrls0.masterReadAvgLat::.ruby.dir_cntrl0     47727.26                       # Per-master read average memory access latency
system.mem_ctrls0.masterWriteAvgLat::.ruby.dir_cntrl0  24256642.92                       # Per-master write average memory access latency
system.mem_ctrls0.totQLat                   591325228                       # Total ticks spent queuing
system.mem_ctrls0.totMemAccLat              973731478                       # Total ticks spent from burst creation until serviced by the DRAM
system.mem_ctrls0.totBusLat                 101975000                       # Total ticks spent in databus transfers
system.mem_ctrls0.avgQLat                    28993.64                       # Average queueing delay per DRAM burst
system.mem_ctrls0.avgBusLat                   5000.00                       # Average bus latency per DRAM burst
system.mem_ctrls0.avgMemAccLat               47743.64                       # Average memory access latency per DRAM burst
system.mem_ctrls0.avgRdBW                       74.53                       # Average DRAM read bandwidth in MiByte/s
system.mem_ctrls0.avgWrBW                       12.25                       # Average achieved write bandwidth in MiByte/s
system.mem_ctrls0.avgRdBWSys                    74.55                       # Average system read bandwidth in MiByte/s
system.mem_ctrls0.avgWrBWSys                    12.36                       # Average system write bandwidth in MiByte/s
system.mem_ctrls0.peakBW                     12800.00                       # Theoretical peak bandwidth in MiByte/s
system.mem_ctrls0.busUtil                        0.68                       # Data bus utilization in percentage
system.mem_ctrls0.busUtilRead                    0.58                       # Data bus utilization in percentage for reads
system.mem_ctrls0.busUtilWrite                   0.10                       # Data bus utilization in percentage for writes
system.mem_ctrls0.avgRdQLen                      1.05                       # Average read queue length when enqueuing
system.mem_ctrls0.avgWrQLen                     21.68                       # Average write queue length when enqueuing
system.mem_ctrls0.readRowHits                   13295                       # Number of row buffer hits during reads
system.mem_ctrls0.writeRowHits                   3093                       # Number of row buffer hits during writes
system.mem_ctrls0.readRowHitRate                65.19                       # Row buffer hit rate for reads
system.mem_ctrls0.writeRowHitRate               91.43                       # Row buffer hit rate for writes
system.mem_ctrls0.avgGap                    705636.58                       # Average gap between requests
system.mem_ctrls0.pageHitRate                   68.92                       # Row buffer hit rate, read and write combined
system.mem_ctrls0_0.actEnergy                27531840                       # Energy for activate commands per rank (pJ)
system.mem_ctrls0_0.preEnergy                14633520                       # Energy for precharge commands per rank (pJ)
system.mem_ctrls0_0.readEnergy               77647500                       # Energy for read commands per rank (pJ)
system.mem_ctrls0_0.writeEnergy              10393020                       # Energy for write commands per rank (pJ)
system.mem_ctrls0_0.refreshEnergy        572844480.000000                       # Energy for refresh commands per rank (pJ)
system.mem_ctrls0_0.actBackEnergy           314653110                       # Energy for active background per rank (pJ)
system.mem_ctrls0_0.preBackEnergy            35447040                       # Energy for precharge background per rank (pJ)
system.mem_ctrls0_0.actPowerDownEnergy     1933784850                       # Energy for active power-down per rank (pJ)
system.mem_ctrls0_0.prePowerDownEnergy      884109120                       # Energy for precharge power-down per rank (pJ)
system.mem_ctrls0_0.selfRefreshEnergy      2567854080                       # Energy for self refresh per rank (pJ)
system.mem_ctrls0_0.totalEnergy            6438912150                       # Total energy per rank (pJ)
system.mem_ctrls0_0.averagePower           367.641056                       # Core power per rank (mW)
system.mem_ctrls0_0.totalIdleTime         16017051750                       # Total Idle time Per DRAM Rank
system.mem_ctrls0_0.memoryStateTime::IDLE     67141251                       # Time in different power states
system.mem_ctrls0_0.memoryStateTime::REF    242320000                       # Time in different power states
system.mem_ctrls0_0.memoryStateTime::SREF  10188542750                       # Time in different power states
system.mem_ctrls0_0.memoryStateTime::PRE_PDN   2302402500                       # Time in different power states
system.mem_ctrls0_0.memoryStateTime::ACT    472910999                       # Time in different power states
system.mem_ctrls0_0.memoryStateTime::ACT_PDN   4240798500                       # Time in different power states
system.mem_ctrls0_1.actEnergy                25004280                       # Energy for activate commands per rank (pJ)
system.mem_ctrls0_1.preEnergy                13290090                       # Energy for precharge commands per rank (pJ)
system.mem_ctrls0_1.readEnergy               67972800                       # Energy for read commands per rank (pJ)
system.mem_ctrls0_1.writeEnergy               7099200                       # Energy for write commands per rank (pJ)
system.mem_ctrls0_1.refreshEnergy        575917680.000000                       # Energy for refresh commands per rank (pJ)
system.mem_ctrls0_1.actBackEnergy           291847410                       # Energy for active background per rank (pJ)
system.mem_ctrls0_1.preBackEnergy            34174080                       # Energy for precharge background per rank (pJ)
system.mem_ctrls0_1.actPowerDownEnergy     1962996210                       # Energy for active power-down per rank (pJ)
system.mem_ctrls0_1.prePowerDownEnergy      894255840                       # Energy for precharge power-down per rank (pJ)
system.mem_ctrls0_1.selfRefreshEnergy      2556745320                       # Energy for self refresh per rank (pJ)
system.mem_ctrls0_1.totalEnergy            6429649080                       # Total energy per rank (pJ)
system.mem_ctrls0_1.averagePower           367.112165                       # Core power per rank (mW)
system.mem_ctrls0_1.totalIdleTime         12070282253                       # Total Idle time Per DRAM Rank
system.mem_ctrls0_1.memoryStateTime::IDLE     64451500                       # Time in different power states
system.mem_ctrls0_1.memoryStateTime::REF    243620000                       # Time in different power states
system.mem_ctrls0_1.memoryStateTime::SREF  10150715500                       # Time in different power states
system.mem_ctrls0_1.memoryStateTime::PRE_PDN   2328801250                       # Time in different power states
system.mem_ctrls0_1.memoryStateTime::ACT    421709747                       # Time in different power states
system.mem_ctrls0_1.memoryStateTime::ACT_PDN   4304818003                       # Time in different power states
system.mem_ctrls1.pwrStateResidencyTicks::UNDEFINED 2382504932000                       # Cumulative time (in ticks) in various power states
system.mem_ctrls1.bytes_read::.cpu0.data           16                       # Number of bytes read from this memory
system.mem_ctrls1.bytes_read::.ruby.dir_cntrl1      1305024                       # Number of bytes read from this memory
system.mem_ctrls1.bytes_read::total           1305040                       # Number of bytes read from this memory
system.mem_ctrls1.bytes_written::.ruby.dir_cntrl1       215424                       # Number of bytes written to this memory
system.mem_ctrls1.bytes_written::total         215424                       # Number of bytes written to this memory
system.mem_ctrls1.num_reads::.cpu0.data             2                       # Number of read requests responded to by this memory
system.mem_ctrls1.num_reads::.ruby.dir_cntrl1        20391                       # Number of read requests responded to by this memory
system.mem_ctrls1.num_reads::total              20393                       # Number of read requests responded to by this memory
system.mem_ctrls1.num_writes::.ruby.dir_cntrl1         3366                       # Number of write requests responded to by this memory
system.mem_ctrls1.num_writes::total              3366                       # Number of write requests responded to by this memory
system.mem_ctrls1.bw_read::.cpu0.data             914                       # Total read bandwidth from this memory (bytes/s)
system.mem_ctrls1.bw_read::.ruby.dir_cntrl1     74512649                       # Total read bandwidth from this memory (bytes/s)
system.mem_ctrls1.bw_read::total             74513563                       # Total read bandwidth from this memory (bytes/s)
system.mem_ctrls1.bw_write::.ruby.dir_cntrl1     12300014                       # Write bandwidth from this memory (bytes/s)
system.mem_ctrls1.bw_write::total            12300014                       # Write bandwidth from this memory (bytes/s)
system.mem_ctrls1.bw_total::.cpu0.data            914                       # Total bandwidth to/from this memory (bytes/s)
system.mem_ctrls1.bw_total::.ruby.dir_cntrl1     86812663                       # Total bandwidth to/from this memory (bytes/s)
system.mem_ctrls1.bw_total::total            86813576                       # Total bandwidth to/from this memory (bytes/s)
system.mem_ctrls1.avgPriority_.ruby.dir_cntrl1::samples     23753.00                       # Average QoS priority value for accepted requests
system.mem_ctrls1.priorityMinLatency     0.000000018750                       # per QoS priority minimum request to response latency (s)
system.mem_ctrls1.priorityMaxLatency     0.007369745750                       # per QoS priority maximum request to response latency (s)
system.mem_ctrls1.numReadWriteTurnArounds          105                       # Number of turnarounds from READ to WRITE
system.mem_ctrls1.numWriteReadTurnArounds          105                       # Number of turnarounds from WRITE to READ
system.mem_ctrls1.numStayReadState              43621                       # Number of times bus staying in READ state
system.mem_ctrls1.numStayWriteState              3387                       # Number of times bus staying in WRITE state
system.mem_ctrls1.readReqs                      20391                       # Number of read requests accepted
system.mem_ctrls1.writeReqs                      3366                       # Number of write requests accepted
system.mem_ctrls1.readBursts                    20391                       # Number of DRAM read bursts, including those serviced by the write queue
system.mem_ctrls1.writeBursts                    3366                       # Number of DRAM write bursts, including those merged in the write queue
system.mem_ctrls1.bytesReadDRAM               1304768                       # Total number of bytes read from DRAM
system.mem_ctrls1.bytesReadWrQ                    256                       # Total number of bytes read from write queue
system.mem_ctrls1.bytesWritten                 213440                       # Total number of bytes written to DRAM
system.mem_ctrls1.bytesReadSys                1305024                       # Total read bytes from the system interface side
system.mem_ctrls1.bytesWrittenSys              215424                       # Total written bytes from the system interface side
system.mem_ctrls1.servicedByWrQ                     4                       # Number of DRAM read bursts serviced by the write queue
system.mem_ctrls1.mergedWrBursts                    0                       # Number of DRAM write bursts merged with an existing one
system.mem_ctrls1.neitherReadNorWriteReqs            0                       # Number of requests that are neither read nor write
system.mem_ctrls1.perBankRdBursts::0             1225                       # Per bank write bursts
system.mem_ctrls1.perBankRdBursts::1             1416                       # Per bank write bursts
system.mem_ctrls1.perBankRdBursts::2             1492                       # Per bank write bursts
system.mem_ctrls1.perBankRdBursts::3             1393                       # Per bank write bursts
system.mem_ctrls1.perBankRdBursts::4             1446                       # Per bank write bursts
system.mem_ctrls1.perBankRdBursts::5             1382                       # Per bank write bursts
system.mem_ctrls1.perBankRdBursts::6             1188                       # Per bank write bursts
system.mem_ctrls1.perBankRdBursts::7             1417                       # Per bank write bursts
system.mem_ctrls1.perBankRdBursts::8             1031                       # Per bank write bursts
system.mem_ctrls1.perBankRdBursts::9             1159                       # Per bank write bursts
system.mem_ctrls1.perBankRdBursts::10             983                       # Per bank write bursts
system.mem_ctrls1.perBankRdBursts::11             948                       # Per bank write bursts
system.mem_ctrls1.perBankRdBursts::12            1831                       # Per bank write bursts
system.mem_ctrls1.perBankRdBursts::13            1159                       # Per bank write bursts
system.mem_ctrls1.perBankRdBursts::14            1328                       # Per bank write bursts
system.mem_ctrls1.perBankRdBursts::15             989                       # Per bank write bursts
system.mem_ctrls1.perBankWrBursts::0              288                       # Per bank write bursts
system.mem_ctrls1.perBankWrBursts::1              128                       # Per bank write bursts
system.mem_ctrls1.perBankWrBursts::2              311                       # Per bank write bursts
system.mem_ctrls1.perBankWrBursts::3              256                       # Per bank write bursts
system.mem_ctrls1.perBankWrBursts::4              192                       # Per bank write bursts
system.mem_ctrls1.perBankWrBursts::5              192                       # Per bank write bursts
system.mem_ctrls1.perBankWrBursts::6              448                       # Per bank write bursts
system.mem_ctrls1.perBankWrBursts::7              160                       # Per bank write bursts
system.mem_ctrls1.perBankWrBursts::8              160                       # Per bank write bursts
system.mem_ctrls1.perBankWrBursts::9              166                       # Per bank write bursts
system.mem_ctrls1.perBankWrBursts::10             128                       # Per bank write bursts
system.mem_ctrls1.perBankWrBursts::11             256                       # Per bank write bursts
system.mem_ctrls1.perBankWrBursts::12             168                       # Per bank write bursts
system.mem_ctrls1.perBankWrBursts::13              97                       # Per bank write bursts
system.mem_ctrls1.perBankWrBursts::14             161                       # Per bank write bursts
system.mem_ctrls1.perBankWrBursts::15             224                       # Per bank write bursts
system.mem_ctrls1.numRdRetry                        0                       # Number of times read queue was full causing retry
system.mem_ctrls1.numWrRetry                       60                       # Number of times write queue was full causing retry
system.mem_ctrls1.totGap                  16269357500                       # Total gap between requests
system.mem_ctrls1.readPktSize::0                    0                       # Read request sizes (log2)
system.mem_ctrls1.readPktSize::1                    0                       # Read request sizes (log2)
system.mem_ctrls1.readPktSize::2                    0                       # Read request sizes (log2)
system.mem_ctrls1.readPktSize::3                    0                       # Read request sizes (log2)
system.mem_ctrls1.readPktSize::4                    0                       # Read request sizes (log2)
system.mem_ctrls1.readPktSize::5                    0                       # Read request sizes (log2)
system.mem_ctrls1.readPktSize::6                20391                       # Read request sizes (log2)
system.mem_ctrls1.writePktSize::0                   0                       # Write request sizes (log2)
system.mem_ctrls1.writePktSize::1                   0                       # Write request sizes (log2)
system.mem_ctrls1.writePktSize::2                   0                       # Write request sizes (log2)
system.mem_ctrls1.writePktSize::3                   0                       # Write request sizes (log2)
system.mem_ctrls1.writePktSize::4                   0                       # Write request sizes (log2)
system.mem_ctrls1.writePktSize::5                   0                       # Write request sizes (log2)
system.mem_ctrls1.writePktSize::6                3366                       # Write request sizes (log2)
system.mem_ctrls1.rdQLenPdf::0                  16974                       # What read queue length does an incoming req see
system.mem_ctrls1.rdQLenPdf::1                   2755                       # What read queue length does an incoming req see
system.mem_ctrls1.rdQLenPdf::2                    532                       # What read queue length does an incoming req see
system.mem_ctrls1.rdQLenPdf::3                    100                       # What read queue length does an incoming req see
system.mem_ctrls1.rdQLenPdf::4                     15                       # What read queue length does an incoming req see
system.mem_ctrls1.rdQLenPdf::5                      7                       # What read queue length does an incoming req see
system.mem_ctrls1.rdQLenPdf::6                      3                       # What read queue length does an incoming req see
system.mem_ctrls1.rdQLenPdf::7                      1                       # What read queue length does an incoming req see
system.mem_ctrls1.rdQLenPdf::8                      0                       # What read queue length does an incoming req see
system.mem_ctrls1.rdQLenPdf::9                      0                       # What read queue length does an incoming req see
system.mem_ctrls1.rdQLenPdf::10                     0                       # What read queue length does an incoming req see
system.mem_ctrls1.rdQLenPdf::11                     0                       # What read queue length does an incoming req see
system.mem_ctrls1.rdQLenPdf::12                     0                       # What read queue length does an incoming req see
system.mem_ctrls1.rdQLenPdf::13                     0                       # What read queue length does an incoming req see
system.mem_ctrls1.rdQLenPdf::14                     0                       # What read queue length does an incoming req see
system.mem_ctrls1.rdQLenPdf::15                     0                       # What read queue length does an incoming req see
system.mem_ctrls1.rdQLenPdf::16                     0                       # What read queue length does an incoming req see
system.mem_ctrls1.rdQLenPdf::17                     0                       # What read queue length does an incoming req see
system.mem_ctrls1.rdQLenPdf::18                     0                       # What read queue length does an incoming req see
system.mem_ctrls1.rdQLenPdf::19                     0                       # What read queue length does an incoming req see
system.mem_ctrls1.rdQLenPdf::20                     0                       # What read queue length does an incoming req see
system.mem_ctrls1.rdQLenPdf::21                     0                       # What read queue length does an incoming req see
system.mem_ctrls1.rdQLenPdf::22                     0                       # What read queue length does an incoming req see
system.mem_ctrls1.rdQLenPdf::23                     0                       # What read queue length does an incoming req see
system.mem_ctrls1.rdQLenPdf::24                     0                       # What read queue length does an incoming req see
system.mem_ctrls1.rdQLenPdf::25                     0                       # What read queue length does an incoming req see
system.mem_ctrls1.rdQLenPdf::26                     0                       # What read queue length does an incoming req see
system.mem_ctrls1.rdQLenPdf::27                     0                       # What read queue length does an incoming req see
system.mem_ctrls1.rdQLenPdf::28                     0                       # What read queue length does an incoming req see
system.mem_ctrls1.rdQLenPdf::29                     0                       # What read queue length does an incoming req see
system.mem_ctrls1.rdQLenPdf::30                     0                       # What read queue length does an incoming req see
system.mem_ctrls1.rdQLenPdf::31                     0                       # What read queue length does an incoming req see
system.mem_ctrls1.wrQLenPdf::0                      1                       # What write queue length does an incoming req see
system.mem_ctrls1.wrQLenPdf::1                      1                       # What write queue length does an incoming req see
system.mem_ctrls1.wrQLenPdf::2                      1                       # What write queue length does an incoming req see
system.mem_ctrls1.wrQLenPdf::3                      1                       # What write queue length does an incoming req see
system.mem_ctrls1.wrQLenPdf::4                      1                       # What write queue length does an incoming req see
system.mem_ctrls1.wrQLenPdf::5                      1                       # What write queue length does an incoming req see
system.mem_ctrls1.wrQLenPdf::6                      1                       # What write queue length does an incoming req see
system.mem_ctrls1.wrQLenPdf::7                      1                       # What write queue length does an incoming req see
system.mem_ctrls1.wrQLenPdf::8                      1                       # What write queue length does an incoming req see
system.mem_ctrls1.wrQLenPdf::9                      1                       # What write queue length does an incoming req see
system.mem_ctrls1.wrQLenPdf::10                     1                       # What write queue length does an incoming req see
system.mem_ctrls1.wrQLenPdf::11                     1                       # What write queue length does an incoming req see
system.mem_ctrls1.wrQLenPdf::12                     1                       # What write queue length does an incoming req see
system.mem_ctrls1.wrQLenPdf::13                     1                       # What write queue length does an incoming req see
system.mem_ctrls1.wrQLenPdf::14                     1                       # What write queue length does an incoming req see
system.mem_ctrls1.wrQLenPdf::15                    79                       # What write queue length does an incoming req see
system.mem_ctrls1.wrQLenPdf::16                    79                       # What write queue length does an incoming req see
system.mem_ctrls1.wrQLenPdf::17                    80                       # What write queue length does an incoming req see
system.mem_ctrls1.wrQLenPdf::18                    80                       # What write queue length does an incoming req see
system.mem_ctrls1.wrQLenPdf::19                    80                       # What write queue length does an incoming req see
system.mem_ctrls1.wrQLenPdf::20                    80                       # What write queue length does an incoming req see
system.mem_ctrls1.wrQLenPdf::21                    80                       # What write queue length does an incoming req see
system.mem_ctrls1.wrQLenPdf::22                    80                       # What write queue length does an incoming req see
system.mem_ctrls1.wrQLenPdf::23                    80                       # What write queue length does an incoming req see
system.mem_ctrls1.wrQLenPdf::24                    80                       # What write queue length does an incoming req see
system.mem_ctrls1.wrQLenPdf::25                    82                       # What write queue length does an incoming req see
system.mem_ctrls1.wrQLenPdf::26                    85                       # What write queue length does an incoming req see
system.mem_ctrls1.wrQLenPdf::27                   211                       # What write queue length does an incoming req see
system.mem_ctrls1.wrQLenPdf::28                   224                       # What write queue length does an incoming req see
system.mem_ctrls1.wrQLenPdf::29                   158                       # What write queue length does an incoming req see
system.mem_ctrls1.wrQLenPdf::30                   239                       # What write queue length does an incoming req see
system.mem_ctrls1.wrQLenPdf::31                   263                       # What write queue length does an incoming req see
system.mem_ctrls1.wrQLenPdf::32                   195                       # What write queue length does an incoming req see
system.mem_ctrls1.wrQLenPdf::33                   169                       # What write queue length does an incoming req see
system.mem_ctrls1.wrQLenPdf::34                   176                       # What write queue length does an incoming req see
system.mem_ctrls1.wrQLenPdf::35                    55                       # What write queue length does an incoming req see
system.mem_ctrls1.wrQLenPdf::36                    60                       # What write queue length does an incoming req see
system.mem_ctrls1.wrQLenPdf::37                    70                       # What write queue length does an incoming req see
system.mem_ctrls1.wrQLenPdf::38                    52                       # What write queue length does an incoming req see
system.mem_ctrls1.wrQLenPdf::39                    46                       # What write queue length does an incoming req see
system.mem_ctrls1.wrQLenPdf::40                    48                       # What write queue length does an incoming req see
system.mem_ctrls1.wrQLenPdf::41                    33                       # What write queue length does an incoming req see
system.mem_ctrls1.wrQLenPdf::42                    49                       # What write queue length does an incoming req see
system.mem_ctrls1.wrQLenPdf::43                    45                       # What write queue length does an incoming req see
system.mem_ctrls1.wrQLenPdf::44                    30                       # What write queue length does an incoming req see
system.mem_ctrls1.wrQLenPdf::45                    33                       # What write queue length does an incoming req see
system.mem_ctrls1.wrQLenPdf::46                    23                       # What write queue length does an incoming req see
system.mem_ctrls1.wrQLenPdf::47                    13                       # What write queue length does an incoming req see
system.mem_ctrls1.wrQLenPdf::48                    18                       # What write queue length does an incoming req see
system.mem_ctrls1.wrQLenPdf::49                    15                       # What write queue length does an incoming req see
system.mem_ctrls1.wrQLenPdf::50                    10                       # What write queue length does an incoming req see
system.mem_ctrls1.wrQLenPdf::51                     9                       # What write queue length does an incoming req see
system.mem_ctrls1.wrQLenPdf::52                     7                       # What write queue length does an incoming req see
system.mem_ctrls1.wrQLenPdf::53                     8                       # What write queue length does an incoming req see
system.mem_ctrls1.wrQLenPdf::54                     8                       # What write queue length does an incoming req see
system.mem_ctrls1.wrQLenPdf::55                     5                       # What write queue length does an incoming req see
system.mem_ctrls1.wrQLenPdf::56                    11                       # What write queue length does an incoming req see
system.mem_ctrls1.wrQLenPdf::57                     8                       # What write queue length does an incoming req see
system.mem_ctrls1.wrQLenPdf::58                     8                       # What write queue length does an incoming req see
system.mem_ctrls1.wrQLenPdf::59                     7                       # What write queue length does an incoming req see
system.mem_ctrls1.wrQLenPdf::60                     3                       # What write queue length does an incoming req see
system.mem_ctrls1.wrQLenPdf::61                     6                       # What write queue length does an incoming req see
system.mem_ctrls1.wrQLenPdf::62                     5                       # What write queue length does an incoming req see
system.mem_ctrls1.wrQLenPdf::63                    66                       # What write queue length does an incoming req see
system.mem_ctrls1.bytesPerActivate::samples         7244                       # Bytes accessed per row activation
system.mem_ctrls1.bytesPerActivate::mean   209.581447                       # Bytes accessed per row activation
system.mem_ctrls1.bytesPerActivate::gmean   121.533598                       # Bytes accessed per row activation
system.mem_ctrls1.bytesPerActivate::stdev   280.266250                       # Bytes accessed per row activation
system.mem_ctrls1.bytesPerActivate::0-127         4199     57.97%     57.97% # Bytes accessed per row activation
system.mem_ctrls1.bytesPerActivate::128-255         1446     19.96%     77.93% # Bytes accessed per row activation
system.mem_ctrls1.bytesPerActivate::256-383          475      6.56%     84.48% # Bytes accessed per row activation
system.mem_ctrls1.bytesPerActivate::384-511          216      2.98%     87.47% # Bytes accessed per row activation
system.mem_ctrls1.bytesPerActivate::512-639          132      1.82%     89.29% # Bytes accessed per row activation
system.mem_ctrls1.bytesPerActivate::640-767           81      1.12%     90.41% # Bytes accessed per row activation
system.mem_ctrls1.bytesPerActivate::768-895           63      0.87%     91.28% # Bytes accessed per row activation
system.mem_ctrls1.bytesPerActivate::896-1023           85      1.17%     92.45% # Bytes accessed per row activation
system.mem_ctrls1.bytesPerActivate::1024-1151          547      7.55%    100.00% # Bytes accessed per row activation
system.mem_ctrls1.bytesPerActivate::total         7244                       # Bytes accessed per row activation
system.mem_ctrls1.rdPerTurnAround::samples          105                       # Reads before turning the bus around for writes
system.mem_ctrls1.rdPerTurnAround::mean    189.828571                       # Reads before turning the bus around for writes
system.mem_ctrls1.rdPerTurnAround::stdev  1675.875147                       # Reads before turning the bus around for writes
system.mem_ctrls1.rdPerTurnAround::0-1023          103     98.10%     98.10% # Reads before turning the bus around for writes
system.mem_ctrls1.rdPerTurnAround::1024-2047            1      0.95%     99.05% # Reads before turning the bus around for writes
system.mem_ctrls1.rdPerTurnAround::16384-17407            1      0.95%    100.00% # Reads before turning the bus around for writes
system.mem_ctrls1.rdPerTurnAround::total          105                       # Reads before turning the bus around for writes
system.mem_ctrls1.wrPerTurnAround::samples          105                       # Writes before turning the bus around for reads
system.mem_ctrls1.wrPerTurnAround::mean     31.761905                       # Writes before turning the bus around for reads
system.mem_ctrls1.wrPerTurnAround::gmean    29.401258                       # Writes before turning the bus around for reads
system.mem_ctrls1.wrPerTurnAround::stdev    14.868348                       # Writes before turning the bus around for reads
system.mem_ctrls1.wrPerTurnAround::16-17           17     16.19%     16.19% # Writes before turning the bus around for reads
system.mem_ctrls1.wrPerTurnAround::20-21            4      3.81%     20.00% # Writes before turning the bus around for reads
system.mem_ctrls1.wrPerTurnAround::22-23            5      4.76%     24.76% # Writes before turning the bus around for reads
system.mem_ctrls1.wrPerTurnAround::24-25            6      5.71%     30.48% # Writes before turning the bus around for reads
system.mem_ctrls1.wrPerTurnAround::26-27            3      2.86%     33.33% # Writes before turning the bus around for reads
system.mem_ctrls1.wrPerTurnAround::30-31            2      1.90%     35.24% # Writes before turning the bus around for reads
system.mem_ctrls1.wrPerTurnAround::32-33           57     54.29%     89.52% # Writes before turning the bus around for reads
system.mem_ctrls1.wrPerTurnAround::46-47            2      1.90%     91.43% # Writes before turning the bus around for reads
system.mem_ctrls1.wrPerTurnAround::48-49            2      1.90%     93.33% # Writes before turning the bus around for reads
system.mem_ctrls1.wrPerTurnAround::64-65            4      3.81%     97.14% # Writes before turning the bus around for reads
system.mem_ctrls1.wrPerTurnAround::96-97            2      1.90%     99.05% # Writes before turning the bus around for reads
system.mem_ctrls1.wrPerTurnAround::98-99            1      0.95%    100.00% # Writes before turning the bus around for reads
system.mem_ctrls1.wrPerTurnAround::total          105                       # Writes before turning the bus around for reads
system.mem_ctrls1.masterReadBytes::.ruby.dir_cntrl1      1304768                       # Per-master bytes read from memory
system.mem_ctrls1.masterWriteBytes::.ruby.dir_cntrl1       213440                       # Per-master bytes write to memory
system.mem_ctrls1.masterReadRate::.ruby.dir_cntrl1 74498032.359820157290                       # Per-master bytes read from memory rate (Bytes/sec)
system.mem_ctrls1.masterWriteRate::.ruby.dir_cntrl1 12186733.600824065506                       # Per-master bytes write to memory rate (Bytes/sec)
system.mem_ctrls1.masterReadAccesses::.ruby.dir_cntrl1        20391                       # Per-master read serviced memory accesses
system.mem_ctrls1.masterWriteAccesses::.ruby.dir_cntrl1         3366                       # Per-master write serviced memory accesses
system.mem_ctrls1.masterReadTotalLat::.ruby.dir_cntrl1    964158726                       # Per-master read total memory access latency
system.mem_ctrls1.masterWriteTotalLat::.ruby.dir_cntrl1  67147405499                       # Per-master write total memory access latency
system.mem_ctrls1.masterReadAvgLat::.ruby.dir_cntrl1     47283.54                       # Per-master read average memory access latency
system.mem_ctrls1.masterWriteAvgLat::.ruby.dir_cntrl1  19948724.15                       # Per-master write average memory access latency
system.mem_ctrls1.totQLat                   581902476                       # Total ticks spent queuing
system.mem_ctrls1.totMemAccLat              964158726                       # Total ticks spent from burst creation until serviced by the DRAM
system.mem_ctrls1.totBusLat                 101935000                       # Total ticks spent in databus transfers
system.mem_ctrls1.avgQLat                    28542.82                       # Average queueing delay per DRAM burst
system.mem_ctrls1.avgBusLat                   5000.00                       # Average bus latency per DRAM burst
system.mem_ctrls1.avgMemAccLat               47292.82                       # Average memory access latency per DRAM burst
system.mem_ctrls1.avgRdBW                       74.50                       # Average DRAM read bandwidth in MiByte/s
system.mem_ctrls1.avgWrBW                       12.19                       # Average achieved write bandwidth in MiByte/s
system.mem_ctrls1.avgRdBWSys                    74.51                       # Average system read bandwidth in MiByte/s
system.mem_ctrls1.avgWrBWSys                    12.30                       # Average system write bandwidth in MiByte/s
system.mem_ctrls1.peakBW                     12800.00                       # Theoretical peak bandwidth in MiByte/s
system.mem_ctrls1.busUtil                        0.68                       # Data bus utilization in percentage
system.mem_ctrls1.busUtilRead                    0.58                       # Data bus utilization in percentage for reads
system.mem_ctrls1.busUtilWrite                   0.10                       # Data bus utilization in percentage for writes
system.mem_ctrls1.avgRdQLen                      1.05                       # Average read queue length when enqueuing
system.mem_ctrls1.avgWrQLen                     21.56                       # Average write queue length when enqueuing
system.mem_ctrls1.readRowHits                   13384                       # Number of row buffer hits during reads
system.mem_ctrls1.writeRowHits                   3094                       # Number of row buffer hits during writes
system.mem_ctrls1.readRowHitRate                65.65                       # Row buffer hit rate for reads
system.mem_ctrls1.writeRowHitRate               91.92                       # Row buffer hit rate for writes
system.mem_ctrls1.avgGap                    684823.74                       # Average gap between requests
system.mem_ctrls1.pageHitRate                   69.37                       # Row buffer hit rate, read and write combined
system.mem_ctrls1_0.actEnergy                27481860                       # Energy for activate commands per rank (pJ)
system.mem_ctrls1_0.preEnergy                14606955                       # Energy for precharge commands per rank (pJ)
system.mem_ctrls1_0.readEnergy               78247260                       # Energy for read commands per rank (pJ)
system.mem_ctrls1_0.writeEnergy              10309500                       # Energy for write commands per rank (pJ)
system.mem_ctrls1_0.refreshEnergy        572229840.000000                       # Energy for refresh commands per rank (pJ)
system.mem_ctrls1_0.actBackEnergy           306090000                       # Energy for active background per rank (pJ)
system.mem_ctrls1_0.preBackEnergy            32893920                       # Energy for precharge background per rank (pJ)
system.mem_ctrls1_0.actPowerDownEnergy     1987081560                       # Energy for active power-down per rank (pJ)
system.mem_ctrls1_0.prePowerDownEnergy      843701280                       # Energy for precharge power-down per rank (pJ)
system.mem_ctrls1_0.selfRefreshEnergy      2561238060                       # Energy for self refresh per rank (pJ)
system.mem_ctrls1_0.totalEnergy            6434384025                       # Total energy per rank (pJ)
system.mem_ctrls1_0.averagePower           367.382515                       # Core power per rank (mW)
system.mem_ctrls1_0.totalIdleTime         15527225001                       # Total Idle time Per DRAM Rank
system.mem_ctrls1_0.memoryStateTime::IDLE     61029000                       # Time in different power states
system.mem_ctrls1_0.memoryStateTime::REF    242060000                       # Time in different power states
system.mem_ctrls1_0.memoryStateTime::SREF  10201297000                       # Time in different power states
system.mem_ctrls1_0.memoryStateTime::PRE_PDN   2197139751                       # Time in different power states
system.mem_ctrls1_0.memoryStateTime::ACT    454901499                       # Time in different power states
system.mem_ctrls1_0.memoryStateTime::ACT_PDN   4357688750                       # Time in different power states
system.mem_ctrls1_1.actEnergy                24240300                       # Energy for activate commands per rank (pJ)
system.mem_ctrls1_1.preEnergy                12884025                       # Energy for precharge commands per rank (pJ)
system.mem_ctrls1_1.readEnergy               67315920                       # Energy for read commands per rank (pJ)
system.mem_ctrls1_1.writeEnergy               7099200                       # Energy for write commands per rank (pJ)
system.mem_ctrls1_1.refreshEnergy        561166320.000000                       # Energy for refresh commands per rank (pJ)
system.mem_ctrls1_1.actBackEnergy           270544800                       # Energy for active background per rank (pJ)
system.mem_ctrls1_1.preBackEnergy            35125440                       # Energy for precharge background per rank (pJ)
system.mem_ctrls1_1.actPowerDownEnergy     1901008140                       # Energy for active power-down per rank (pJ)
system.mem_ctrls1_1.prePowerDownEnergy      892505280                       # Energy for precharge power-down per rank (pJ)
system.mem_ctrls1_1.selfRefreshEnergy      2605445640                       # Energy for self refresh per rank (pJ)
system.mem_ctrls1_1.totalEnergy            6377615115                       # Total energy per rank (pJ)
system.mem_ctrls1_1.averagePower           364.141194                       # Core power per rank (mW)
system.mem_ctrls1_1.totalIdleTime         15597762506                       # Total Idle time Per DRAM Rank
system.mem_ctrls1_1.memoryStateTime::IDLE     66806000                       # Time in different power states
system.mem_ctrls1_1.memoryStateTime::REF    237380000                       # Time in different power states
system.mem_ctrls1_1.memoryStateTime::SREF  10335377500                       # Time in different power states
system.mem_ctrls1_1.memoryStateTime::PRE_PDN   2324240750                       # Time in different power states
system.mem_ctrls1_1.memoryStateTime::ACT    381341494                       # Time in different power states
system.mem_ctrls1_1.memoryStateTime::ACT_PDN   4168970256                       # Time in different power states
system.pwrStateResidencyTicks::UNDEFINED 2382504932000                       # Cumulative time (in ticks) in various power states
system.cpu_voltage_domain.voltage                   1                       # Voltage in Volts
system.cpu_clk_domain.clock                       500                       # Clock period in ticks
system.cpu0.dtb.walker.pwrStateResidencyTicks::UNDEFINED 2382504932000                       # Cumulative time (in ticks) in various power states
system.cpu0.dtb.rdAccesses                          4                       # TLB accesses on read requests
system.cpu0.dtb.wrAccesses                          0                       # TLB accesses on write requests
system.cpu0.dtb.rdMisses                            0                       # TLB misses on read requests
system.cpu0.dtb.wrMisses                            0                       # TLB misses on write requests
system.cpu0.apic_clk_domain.clock                8000                       # Clock period in ticks
system.cpu0.interrupts.pwrStateResidencyTicks::UNDEFINED 2382504932000                       # Cumulative time (in ticks) in various power states
system.cpu0.itb.walker.pwrStateResidencyTicks::UNDEFINED 2382504932000                       # Cumulative time (in ticks) in various power states
system.cpu0.itb.rdAccesses                          0                       # TLB accesses on read requests
system.cpu0.itb.wrAccesses                          8                       # TLB accesses on write requests
system.cpu0.itb.rdMisses                            0                       # TLB misses on read requests
system.cpu0.itb.wrMisses                            0                       # TLB misses on write requests
system.cpu0.numPwrStateTransitions                  1                       # Number of power state transitions
system.cpu0.pwrStateResidencyTicks::ON          11000                       # Cumulative time (in ticks) in various power states
system.cpu0.pwrStateResidencyTicks::OFF   17514116000                       # Cumulative time (in ticks) in various power states
system.cpu0.numCycles                              22                       # number of cpu cycles simulated
system.cpu0.numWorkItemsStarted                     0                       # number of work items this cpu started
system.cpu0.numWorkItemsCompleted                   0                       # number of work items this cpu completed
system.cpu0.kern.inst.arm                           0                       # number of arm instructions executed
system.cpu0.kern.inst.quiesce                       0                       # number of quiesce instructions executed
system.cpu0.committedInsts                          7                       # Number of instructions committed
system.cpu0.committedOps                           21                       # Number of ops (including micro ops) committed
system.cpu0.num_int_alu_accesses                    9                       # Number of integer alu accesses
system.cpu0.num_fp_alu_accesses                    12                       # Number of float alu accesses
system.cpu0.num_vec_alu_accesses                    0                       # Number of vector alu accesses
system.cpu0.num_func_calls                          0                       # number of times a function call or return occured
system.cpu0.num_conditional_control_insts            2                       # number of instructions that are conditional controls
system.cpu0.num_int_insts                           9                       # number of integer instructions
system.cpu0.num_fp_insts                           12                       # number of float instructions
system.cpu0.num_vec_insts                           0                       # number of vector instructions
system.cpu0.num_int_register_reads                 20                       # number of times the integer registers were read
system.cpu0.num_int_register_writes                 4                       # number of times the integer registers were written
system.cpu0.num_fp_register_reads                  18                       # number of times the floating registers were read
system.cpu0.num_fp_register_writes                 12                       # number of times the floating registers were written
system.cpu0.num_vec_register_reads                  0                       # number of times the vector registers were read
system.cpu0.num_vec_register_writes                 0                       # number of times the vector registers were written
system.cpu0.num_cc_register_reads                  10                       # number of times the CC registers were read
system.cpu0.num_cc_register_writes                  2                       # number of times the CC registers were written
system.cpu0.num_mem_refs                            4                       # number of memory refs
[...]
system.ruby.L1Cache_Controller.NP.Ifetch::total       231191                      
system.ruby.L1Cache_Controller.NP.Store  |       18648     39.04%     39.04% |       29116     60.96%    100.00%
system.ruby.L1Cache_Controller.NP.Store::total        47764                      
system.ruby.L1Cache_Controller.NP.Inv    |          83     43.23%     43.23% |         109     56.77%    100.00%
system.ruby.L1Cache_Controller.NP.Inv::total          192                      
system.ruby.L1Cache_Controller.I.Load    |          63     25.51%     25.51% |         184     74.49%    100.00%
system.ruby.L1Cache_Controller.I.Load::total          247                      
system.ruby.L1Cache_Controller.I.Store   |           9     20.00%     20.00% |          36     80.00%    100.00%
system.ruby.L1Cache_Controller.I.Store::total           45                      
system.ruby.L1Cache_Controller.I.L1_Replacement |         231     42.00%     42.00% |         319     58.00%    100.00%
system.ruby.L1Cache_Controller.I.L1_Replacement::total          550                      
system.ruby.L1Cache_Controller.S.Load    |      255413     62.61%     62.61% |      152519     37.39%    100.00%
system.ruby.L1Cache_Controller.S.Load::total       407932                      
system.ruby.L1Cache_Controller.S.Ifetch  |     3712923     70.36%     70.36% |     1564324     29.64%    100.00%
system.ruby.L1Cache_Controller.S.Ifetch::total      5277247                      
system.ruby.L1Cache_Controller.S.Store   |         474     64.05%     64.05% |         266     35.95%    100.00%
system.ruby.L1Cache_Controller.S.Store::total          740                      
system.ruby.L1Cache_Controller.S.Inv     |         214     32.82%     32.82% |         438     67.18%    100.00%
system.ruby.L1Cache_Controller.S.Inv::total          652                      
system.ruby.L1Cache_Controller.S.L1_Replacement |      160573     63.82%     63.82% |       91018     36.18%    100.00%
system.ruby.L1Cache_Controller.S.L1_Replacement::total       251591                      
system.ruby.L1Cache_Controller.E.Load    |     2237818     77.72%     77.72% |      641362     22.28%    100.00%
system.ruby.L1Cache_Controller.E.Load::total      2879180                      
system.ruby.L1Cache_Controller.E.Store   |        9300     36.15%     36.15% |       16428     63.85%    100.00%
system.ruby.L1Cache_Controller.E.Store::total        25728                      
system.ruby.L1Cache_Controller.E.L1_Replacement |       34447     45.65%     45.65% |       41007     54.35%    100.00%
system.ruby.L1Cache_Controller.E.L1_Replacement::total        75454                      
system.ruby.L1Cache_Controller.E.Fwd_GETX |           6     14.63%     14.63% |          35     85.37%    100.00%
system.ruby.L1Cache_Controller.E.Fwd_GETX::total           41                      
system.ruby.L1Cache_Controller.E.Fwd_GETS |         373     43.32%     43.32% |         488     56.68%    100.00%
system.ruby.L1Cache_Controller.E.Fwd_GETS::total          861                      
system.ruby.L1Cache_Controller.E.Fwd_GET_INSTR |           1     33.33%     33.33% |           2     66.67%    100.00%
system.ruby.L1Cache_Controller.E.Fwd_GET_INSTR::total            3                      
system.ruby.L1Cache_Controller.M.Load    |    12841872     34.16%     34.16% |    24751010     65.84%    100.00%
system.ruby.L1Cache_Controller.M.Load::total     37592882                      
system.ruby.L1Cache_Controller.M.Store   |     1672905     62.39%     62.39% |     1008540     37.61%    100.00%
system.ruby.L1Cache_Controller.M.Store::total      2681445                      
system.ruby.L1Cache_Controller.M.Inv     |          14    100.00%    100.00% |           0      0.00%    100.00%
system.ruby.L1Cache_Controller.M.Inv::total           14                      
system.ruby.L1Cache_Controller.M.L1_Replacement |       27731     37.99%     37.99% |       45257     62.01%    100.00%
system.ruby.L1Cache_Controller.M.L1_Replacement::total        72988                      
system.ruby.L1Cache_Controller.M.Fwd_GETX |          69     39.43%     39.43% |         106     60.57%    100.00%
system.ruby.L1Cache_Controller.M.Fwd_GETX::total          175                      
system.ruby.L1Cache_Controller.M.Fwd_GETS |         318     49.07%     49.07% |         330     50.93%    100.00%
system.ruby.L1Cache_Controller.M.Fwd_GETS::total          648                      
system.ruby.L1Cache_Controller.IS.Data_Exclusive |       44237     43.22%     43.22% |       58108     56.78%    100.00%
system.ruby.L1Cache_Controller.IS.Data_Exclusive::total       102345                      
system.ruby.L1Cache_Controller.IS.DataS_fromL1 |         820     54.23%     54.23% |         692     45.77%    100.00%
system.ruby.L1Cache_Controller.IS.DataS_fromL1::total         1512                      
system.ruby.L1Cache_Controller.IS.Data_all_Acks |      160364     63.83%     63.83% |       90891     36.17%    100.00%
system.ruby.L1Cache_Controller.IS.Data_all_Acks::total       251255                      
system.ruby.L1Cache_Controller.IM.L1_Replacement |           1    100.00%    100.00% |           0      0.00%    100.00%
system.ruby.L1Cache_Controller.IM.L1_Replacement::total            1                      
system.ruby.L1Cache_Controller.IM.Data   |          49     71.01%     71.01% |          20     28.99%    100.00%
system.ruby.L1Cache_Controller.IM.Data::total           69                      
system.ruby.L1Cache_Controller.IM.Data_all_Acks |       18608     38.98%     38.98% |       29133     61.02%    100.00%
system.ruby.L1Cache_Controller.IM.Data_all_Acks::total        47741                      
system.ruby.L1Cache_Controller.SM.Inv    |           0      0.00%      0.00% |           1    100.00%    100.00%
system.ruby.L1Cache_Controller.SM.Inv::total            1                      
system.ruby.L1Cache_Controller.SM.Ack    |         474     64.14%     64.14% |         265     35.86%    100.00%
system.ruby.L1Cache_Controller.SM.Ack::total          739                      
system.ruby.L1Cache_Controller.SM.Ack_all |         523     64.73%     64.73% |         285     35.27%    100.00%
system.ruby.L1Cache_Controller.SM.Ack_all::total          808                      
system.ruby.L1Cache_Controller.M_I.Load  |          20     40.82%     40.82% |          29     59.18%    100.00%
system.ruby.L1Cache_Controller.M_I.Load::total           49                      
system.ruby.L1Cache_Controller.M_I.Ifetch |           1     20.00%     20.00% |           4     80.00%    100.00%
system.ruby.L1Cache_Controller.M_I.Ifetch::total            5                      
system.ruby.L1Cache_Controller.M_I.Store |           1    100.00%    100.00% |           0      0.00%    100.00%
system.ruby.L1Cache_Controller.M_I.Store::total            1                      
system.ruby.L1Cache_Controller.M_I.WB_Ack |       62178     41.89%     41.89% |       86264     58.11%    100.00%
system.ruby.L1Cache_Controller.M_I.WB_Ack::total       148442                      
system.ruby.L2Cache_Controller.L1_GET_INSTR |      114614     49.58%     49.58% |      116577     50.42%    100.00%
system.ruby.L2Cache_Controller.L1_GET_INSTR::total       231191                      
system.ruby.L2Cache_Controller.L1_GETS   |       68572     55.33%     55.33% |       55359     44.67%    100.00%
system.ruby.L2Cache_Controller.L1_GETS::total       123931                      
system.ruby.L2Cache_Controller.L1_GETX   |       24393     51.02%     51.02% |       23417     48.98%    100.00%
system.ruby.L2Cache_Controller.L1_GETX::total        47810                      
system.ruby.L2Cache_Controller.L1_UPGRADE |         362     48.92%     48.92% |         378     51.08%    100.00%
system.ruby.L2Cache_Controller.L1_UPGRADE::total          740                      
system.ruby.L2Cache_Controller.L1_PUTX   |       78910     53.16%     53.16% |       69532     46.84%    100.00%
system.ruby.L2Cache_Controller.L1_PUTX::total       148442                      
system.ruby.L2Cache_Controller.L2_Replacement |          39     54.93%     54.93% |          32     45.07%    100.00%
system.ruby.L2Cache_Controller.L2_Replacement::total           71                      
system.ruby.L2Cache_Controller.L2_Replacement_clean |          31     52.54%     52.54% |          28     47.46%    100.00%
system.ruby.L2Cache_Controller.L2_Replacement_clean::total           59                      
system.ruby.L2Cache_Controller.Mem_Data  |       20475     50.28%     50.28% |       20246     49.72%    100.00%
system.ruby.L2Cache_Controller.Mem_Data::total        40721                      
system.ruby.L2Cache_Controller.Mem_Ack   |         281     51.85%     51.85% |         261     48.15%    100.00%
system.ruby.L2Cache_Controller.Mem_Ack::total          542                      
system.ruby.L2Cache_Controller.WB_Data   |         318     48.04%     48.04% |         344     51.96%    100.00%
system.ruby.L2Cache_Controller.WB_Data::total          662                      
system.ruby.L2Cache_Controller.WB_Data_clean |         435     50.35%     50.35% |         429     49.65%    100.00%
system.ruby.L2Cache_Controller.WB_Data_clean::total          864                      
system.ruby.L2Cache_Controller.Ack       |           3     30.00%     30.00% |           7     70.00%    100.00%
system.ruby.L2Cache_Controller.Ack::total           10                      
system.ruby.L2Cache_Controller.Ack_all   |          14     51.85%     51.85% |          13     48.15%    100.00%
system.ruby.L2Cache_Controller.Ack_all::total           27                      
system.ruby.L2Cache_Controller.Unblock   |         741     49.01%     49.01% |         771     50.99%    100.00%
system.ruby.L2Cache_Controller.Unblock::total         1512                      
system.ruby.L2Cache_Controller.Exclusive_Unblock |       80145     53.11%     53.11% |       70749     46.89%    100.00%
system.ruby.L2Cache_Controller.Exclusive_Unblock::total       150894                      
system.ruby.L2Cache_Controller.MEM_Inv   |         422     51.21%     51.21% |         402     48.79%    100.00%
system.ruby.L2Cache_Controller.MEM_Inv::total          824                      
system.ruby.L2Cache_Controller.NP.L1_GET_INSTR |        5846     49.71%     49.71% |        5915     50.29%    100.00%
system.ruby.L2Cache_Controller.NP.L1_GET_INSTR::total        11761                      
system.ruby.L2Cache_Controller.NP.L1_GETS |        6956     51.33%     51.33% |        6596     48.67%    100.00%
system.ruby.L2Cache_Controller.NP.L1_GETS::total        13552                      
system.ruby.L2Cache_Controller.NP.L1_GETX |        7673     49.80%     49.80% |        7735     50.20%    100.00%
system.ruby.L2Cache_Controller.NP.L1_GETX::total        15408                      
system.ruby.L2Cache_Controller.SS.L1_GET_INSTR |      108754     49.57%     49.57% |      110644     50.43%    100.00%
system.ruby.L2Cache_Controller.SS.L1_GET_INSTR::total       219398                      
system.ruby.L2Cache_Controller.SS.L1_GETS |       12440     62.00%     62.00% |        7625     38.00%    100.00%
system.ruby.L2Cache_Controller.SS.L1_GETS::total        20065                      
system.ruby.L2Cache_Controller.SS.L1_GETX |          42     59.15%     59.15% |          29     40.85%    100.00%
system.ruby.L2Cache_Controller.SS.L1_GETX::total           71                      
system.ruby.L2Cache_Controller.SS.L1_UPGRADE |         361     48.85%     48.85% |         378     51.15%    100.00%
system.ruby.L2Cache_Controller.SS.L1_UPGRADE::total          739                      
system.ruby.L2Cache_Controller.SS.L2_Replacement_clean |          13     52.00%     52.00% |          12     48.00%    100.00%
system.ruby.L2Cache_Controller.SS.L2_Replacement_clean::total           25                      
system.ruby.L2Cache_Controller.M.L1_GET_INSTR |           7     36.84%     36.84% |          12     63.16%    100.00%
system.ruby.L2Cache_Controller.M.L1_GET_INSTR::total           19                      
system.ruby.L2Cache_Controller.M.L1_GETS |       48435     54.55%     54.55% |       40359     45.45%    100.00%
system.ruby.L2Cache_Controller.M.L1_GETS::total        88794                      
system.ruby.L2Cache_Controller.M.L1_GETX |       16558     51.56%     51.56% |       15557     48.44%    100.00%
system.ruby.L2Cache_Controller.M.L1_GETX::total        32115                      
system.ruby.L2Cache_Controller.M.L2_Replacement |          39     55.71%     55.71% |          31     44.29%    100.00%
system.ruby.L2Cache_Controller.M.L2_Replacement::total           70                      
system.ruby.L2Cache_Controller.M.L2_Replacement_clean |          17     51.52%     51.52% |          16     48.48%    100.00%
system.ruby.L2Cache_Controller.M.L2_Replacement_clean::total           33                      
system.ruby.L2Cache_Controller.M.MEM_Inv |         199     50.00%     50.00% |         199     50.00%    100.00%
system.ruby.L2Cache_Controller.M.MEM_Inv::total          398                      
system.ruby.L2Cache_Controller.MT.L1_GET_INSTR |           2     66.67%     66.67% |           1     33.33%    100.00%
system.ruby.L2Cache_Controller.MT.L1_GET_INSTR::total            3                      
system.ruby.L2Cache_Controller.MT.L1_GETS |         739     48.97%     48.97% |         770     51.03%    100.00%
system.ruby.L2Cache_Controller.MT.L1_GETS::total         1509                      
system.ruby.L2Cache_Controller.MT.L1_GETX |         120     55.56%     55.56% |          96     44.44%    100.00%
system.ruby.L2Cache_Controller.MT.L1_GETX::total          216                      
system.ruby.L2Cache_Controller.MT.L1_PUTX |       78910     53.16%     53.16% |       69532     46.84%    100.00%
system.ruby.L2Cache_Controller.MT.L1_PUTX::total       148442                      
system.ruby.L2Cache_Controller.MT.L2_Replacement |           0      0.00%      0.00% |           1    100.00%    100.00%
system.ruby.L2Cache_Controller.MT.L2_Replacement::total            1                      
system.ruby.L2Cache_Controller.MT.L2_Replacement_clean |           1    100.00%    100.00% |           0      0.00%    100.00%
system.ruby.L2Cache_Controller.MT.L2_Replacement_clean::total            1                      
system.ruby.L2Cache_Controller.MT.MEM_Inv |          12     85.71%     85.71% |           2     14.29%    100.00%
system.ruby.L2Cache_Controller.MT.MEM_Inv::total           14                      
system.ruby.L2Cache_Controller.M_I.Mem_Ack |         281     51.85%     51.85% |         261     48.15%    100.00%
system.ruby.L2Cache_Controller.M_I.Mem_Ack::total          542                      
system.ruby.L2Cache_Controller.M_I.MEM_Inv |         199     50.00%     50.00% |         199     50.00%    100.00%
system.ruby.L2Cache_Controller.M_I.MEM_Inv::total          398                      
system.ruby.L2Cache_Controller.MT_I.WB_Data |          12     85.71%     85.71% |           2     14.29%    100.00%
system.ruby.L2Cache_Controller.MT_I.WB_Data::total           14                      
system.ruby.L2Cache_Controller.MT_I.Ack_all |           0      0.00%      0.00% |           1    100.00%    100.00%
system.ruby.L2Cache_Controller.MT_I.Ack_all::total            1                      
system.ruby.L2Cache_Controller.MT_I.MEM_Inv |          12     85.71%     85.71% |           2     14.29%    100.00%
system.ruby.L2Cache_Controller.MT_I.MEM_Inv::total           14                      
system.ruby.L2Cache_Controller.MCT_I.Ack_all |           1    100.00%    100.00% |           0      0.00%    100.00%
system.ruby.L2Cache_Controller.MCT_I.Ack_all::total            1                      
system.ruby.L2Cache_Controller.I_I.Ack   |           3     30.00%     30.00% |           7     70.00%    100.00%
system.ruby.L2Cache_Controller.I_I.Ack::total           10                      
system.ruby.L2Cache_Controller.I_I.Ack_all |          13     52.00%     52.00% |          12     48.00%    100.00%
system.ruby.L2Cache_Controller.I_I.Ack_all::total           25                      
system.ruby.L2Cache_Controller.ISS.L1_GETS |           0      0.00%      0.00% |           1    100.00%    100.00%
system.ruby.L2Cache_Controller.ISS.L1_GETS::total            1                      
system.ruby.L2Cache_Controller.ISS.Mem_Data |        6956     51.33%     51.33% |        6595     48.67%    100.00%
system.ruby.L2Cache_Controller.ISS.Mem_Data::total        13551                      
system.ruby.L2Cache_Controller.IS.L1_GET_INSTR |           5     50.00%     50.00% |           5     50.00%    100.00%
system.ruby.L2Cache_Controller.IS.L1_GET_INSTR::total           10                      
system.ruby.L2Cache_Controller.IS.Mem_Data |        5846     49.70%     49.70% |        5916     50.30%    100.00%
system.ruby.L2Cache_Controller.IS.Mem_Data::total        11762                      
system.ruby.L2Cache_Controller.IM.Mem_Data |        7673     49.80%     49.80% |        7735     50.20%    100.00%
system.ruby.L2Cache_Controller.IM.Mem_Data::total        15408                      
system.ruby.L2Cache_Controller.SS_MB.L1_GETS |           1     25.00%     25.00% |           3     75.00%    100.00%
system.ruby.L2Cache_Controller.SS_MB.L1_GETS::total            4                      
system.ruby.L2Cache_Controller.SS_MB.L1_UPGRADE |           1    100.00%    100.00% |           0      0.00%    100.00%
system.ruby.L2Cache_Controller.SS_MB.L1_UPGRADE::total            1                      
system.ruby.L2Cache_Controller.SS_MB.Exclusive_Unblock |         403     49.75%     49.75% |         407     50.25%    100.00%
system.ruby.L2Cache_Controller.SS_MB.Exclusive_Unblock::total          810                      
system.ruby.L2Cache_Controller.MT_MB.L1_GETS |           1     16.67%     16.67% |           5     83.33%    100.00%
system.ruby.L2Cache_Controller.MT_MB.L1_GETS::total            6                      
system.ruby.L2Cache_Controller.MT_MB.Exclusive_Unblock |       79742     53.13%     53.13% |       70342     46.87%    100.00%
system.ruby.L2Cache_Controller.MT_MB.Exclusive_Unblock::total       150084                      
system.ruby.L2Cache_Controller.MT_IIB.WB_Data |         303     47.05%     47.05% |         341     52.95%    100.00%
system.ruby.L2Cache_Controller.MT_IIB.WB_Data::total          644                      
system.ruby.L2Cache_Controller.MT_IIB.WB_Data_clean |         433     50.29%     50.29% |         428     49.71%    100.00%
system.ruby.L2Cache_Controller.MT_IIB.WB_Data_clean::total          861                      
system.ruby.L2Cache_Controller.MT_IIB.Unblock |           5     71.43%     71.43% |           2     28.57%    100.00%
system.ruby.L2Cache_Controller.MT_IIB.Unblock::total            7                      
system.ruby.L2Cache_Controller.MT_IB.WB_Data |           3     75.00%     75.00% |           1     25.00%    100.00%
system.ruby.L2Cache_Controller.MT_IB.WB_Data::total            4                      
system.ruby.L2Cache_Controller.MT_IB.WB_Data_clean |           2     66.67%     66.67% |           1     33.33%    100.00%
system.ruby.L2Cache_Controller.MT_IB.WB_Data_clean::total            3                      
system.ruby.L2Cache_Controller.MT_SB.Unblock |         736     48.90%     48.90% |         769     51.10%    100.00%
system.ruby.L2Cache_Controller.MT_SB.Unblock::total         1505                      
system.switch_cpus0.kern.inst.arm                   0                       # number of arm instructions executed
system.switch_cpus0.kern.inst.quiesce               0                       # number of quiesce instructions executed
system.switch_cpus1.kern.inst.arm                   0                       # number of arm instructions executed
system.switch_cpus1.kern.inst.quiesce               0                       # number of quiesce instructions executed

---------- End Simulation Statistics   ----------
