
---------- Begin Simulation Statistics ----------
sim_seconds                                  0.022735                       # Number of seconds simulated
sim_ticks                                 22734893000                       # Number of ticks simulated
final_tick                               2531099045500                       # Number of ticks from beginning of simulation (restored from checkpoints and never reset)
sim_freq                                 1000000000000                       # Frequency of simulated ticks
host_inst_rate                                  56219                       # Simulator instruction rate (inst/s)
host_op_rate                                   106944                       # Simulator op (including micro ops) rate (op/s)
host_tick_rate                               27137717                       # Simulator tick rate (ticks/s)
host_mem_usage                                4254960                       # Number of bytes of host memory used
host_seconds                                   837.76                       # Real time elapsed on the host
sim_insts                                    47098379                       # Number of instructions simulated
sim_ops                                      89593094                       # Number of ops (including micro ops) simulated
system.voltage_domain.voltage                       1                       # Voltage in Volts
system.clk_domain.clock                          1000                       # Clock period in ticks
system.mem_ctrls0.pwrStateResidencyTicks::UNDEFINED 2531099045500                       # Cumulative time (in ticks) in various power states
system.mem_ctrls0.bytes_read::.cpu0.data           24                       # Number of bytes read from this memory
system.mem_ctrls0.bytes_read::.cpu1.inst           72                       # Number of bytes read from this memory
system.mem_ctrls0.bytes_read::.cpu1.data            8                       # Number of bytes read from this memory
system.mem_ctrls0.bytes_read::.ruby.dir_cntrl0      3131328                       # Number of bytes read from this memory
system.mem_ctrls0.bytes_read::total           3131432                       # Number of bytes read from this memory
system.mem_ctrls0.bytes_inst_read::.cpu1.inst           72                       # Number of instructions bytes read from this memory
system.mem_ctrls0.bytes_inst_read::total           72                       # Number of instructions bytes read from this memory
system.mem_ctrls0.bytes_written::.ruby.dir_cntrl0       475008                       # Number of bytes written to this memory
system.mem_ctrls0.bytes_written::total         475008                       # Number of bytes written to this memory
system.mem_ctrls0.num_reads::.cpu0.data             3                       # Number of read requests responded to by this memory
system.mem_ctrls0.num_reads::.cpu1.inst             9                       # Number of read requests responded to by this memory
system.mem_ctrls0.num_reads::.cpu1.data             1                       # Number of read requests responded to by this memory
system.mem_ctrls0.num_reads::.ruby.dir_cntrl0        48927                       # Number of read requests responded to by this memory
system.mem_ctrls0.num_reads::total              48940                       # Number of read requests responded to by this memory
system.mem_ctrls0.num_writes::.ruby.dir_cntrl0         7422                       # Number of write requests responded to by this memory
system.mem_ctrls0.num_writes::total              7422                       # Number of write requests responded to by this memory
system.mem_ctrls0.bw_read::.cpu0.data            1056                       # Total read bandwidth from this memory (bytes/s)
system.mem_ctrls0.bw_read::.cpu1.inst            3167                       # Total read bandwidth from this memory (bytes/s)
system.mem_ctrls0.bw_read::.cpu1.data             352                       # Total read bandwidth from this memory (bytes/s)
system.mem_ctrls0.bw_read::.ruby.dir_cntrl0    137732251                       # Total read bandwidth from this memory (bytes/s)
system.mem_ctrls0.bw_read::total            137736826                       # Total read bandwidth from this memory (bytes/s)
system.mem_ctrls0.bw_inst_read::.cpu1.inst         3167                       # Instruction read bandwidth from this memory (bytes/s)
system.mem_ctrls0.bw_inst_read::total            3167                       # Instruction read bandwidth from this memory (bytes/s)
system.mem_ctrls0.bw_write::.ruby.dir_cntrl0     20893347                       # Write bandwidth from this memory (bytes/s)
system.mem_ctrls0.bw_write::total            20893347                       # Write bandwidth from this memory (bytes/s)
system.mem_ctrls0.bw_total::.cpu0.data           1056                       # Total bandwidth to/from this memory (bytes/s)
system.mem_ctrls0.bw_total::.cpu1.inst           3167                       # Total bandwidth to/from this memory (bytes/s)
system.mem_ctrls0.bw_total::.cpu1.data            352                       # Total bandwidth to/from this memory (bytes/s)
system.mem_ctrls0.bw_total::.ruby.dir_cntrl0    158625598                       # Total bandwidth to/from this memory (bytes/s)
system.mem_ctrls0.bw_total::total           158630173                       # Total bandwidth to/from this memory (bytes/s)
system.mem_ctrls0.avgPriority_.ruby.dir_cntrl0::samples     56266.00                       # Average QoS priority value for accepted requests
system.mem_ctrls0.priorityMinLatency     0.000000018750                       # per QoS priority minimum request to response latency (s)
system.mem_ctrls0.priorityMaxLatency     0.006212275750                       # per QoS priority maximum request to response latency (s)
system.mem_ctrls0.numReadWriteTurnArounds          434                       # Number of turnarounds from READ to WRITE
system.mem_ctrls0.numWriteReadTurnArounds          434                       # Number of turnarounds from WRITE to READ
system.mem_ctrls0.numStayReadState             107599                       # Number of times bus staying in READ state
system.mem_ctrls0.numStayWriteState              7042                       # Number of times bus staying in WRITE state
system.mem_ctrls0.readReqs                      48927                       # Number of read requests accepted
system.mem_ctrls0.writeReqs                      7422                       # Number of write requests accepted
system.mem_ctrls0.readBursts                    48927                       # Number of DRAM read bursts, including those serviced by the write queue
system.mem_ctrls0.writeBursts                    7422                       # Number of DRAM write bursts, including those merged in the write queue
system.mem_ctrls0.bytesReadDRAM               3126080                       # Total number of bytes read from DRAM
system.mem_ctrls0.bytesReadWrQ                   5248                       # Total number of bytes read from write queue
system.mem_ctrls0.bytesWritten                 473536                       # Total number of bytes written to DRAM
system.mem_ctrls0.bytesReadSys                3131328                       # Total read bytes from the system interface side
system.mem_ctrls0.bytesWrittenSys              475008                       # Total written bytes from the system interface side
system.mem_ctrls0.servicedByWrQ                    82                       # Number of DRAM read bursts serviced by the write queue
system.mem_ctrls0.mergedWrBursts                    1                       # Number of DRAM write bursts merged with an existing one
system.mem_ctrls0.neitherReadNorWriteReqs            0                       # Number of requests that are neither read nor write
system.mem_ctrls0.perBankRdBursts::0             2439                       # Per bank write bursts
system.mem_ctrls0.perBankRdBursts::1             3600                       # Per bank write bursts
system.mem_ctrls0.perBankRdBursts::2             3191                       # Per bank write bursts
system.mem_ctrls0.perBankRdBursts::3             3090                       # Per bank write bursts
system.mem_ctrls0.perBankRdBursts::4             3583                       # Per bank write bursts
system.mem_ctrls0.perBankRdBursts::5             3294                       # Per bank write bursts
system.mem_ctrls0.perBankRdBursts::6             3008                       # Per bank write bursts
system.mem_ctrls0.perBankRdBursts::7             3741                       # Per bank write bursts
system.mem_ctrls0.perBankRdBursts::8             3804                       # Per bank write bursts
system.mem_ctrls0.perBankRdBursts::9             3004                       # Per bank write bursts
system.mem_ctrls0.perBankRdBursts::10            3083                       # Per bank write bursts
system.mem_ctrls0.perBankRdBursts::11            3001                       # Per bank write bursts
system.mem_ctrls0.perBankRdBursts::12            2759                       # Per bank write bursts
system.mem_ctrls0.perBankRdBursts::13            2464                       # Per bank write bursts
system.mem_ctrls0.perBankRdBursts::14            2308                       # Per bank write bursts
system.mem_ctrls0.perBankRdBursts::15            2476                       # Per bank write bursts
system.mem_ctrls0.perBankWrBursts::0              204                       # Per bank write bursts
system.mem_ctrls0.perBankWrBursts::1              754                       # Per bank write bursts
system.mem_ctrls0.perBankWrBursts::2              644                       # Per bank write bursts
system.mem_ctrls0.perBankWrBursts::3              352                       # Per bank write bursts
system.mem_ctrls0.perBankWrBursts::4              563                       # Per bank write bursts
system.mem_ctrls0.perBankWrBursts::5              432                       # Per bank write bursts
system.mem_ctrls0.perBankWrBursts::6              269                       # Per bank write bursts
system.mem_ctrls0.perBankWrBursts::7              590                       # Per bank write bursts
system.mem_ctrls0.perBankWrBursts::8              926                       # Per bank write bursts
system.mem_ctrls0.perBankWrBursts::9              541                       # Per bank write bursts
system.mem_ctrls0.perBankWrBursts::10             620                       # Per bank write bursts
system.mem_ctrls0.perBankWrBursts::11             474                       # Per bank write bursts
system.mem_ctrls0.perBankWrBursts::12             431                       # Per bank write bursts
system.mem_ctrls0.perBankWrBursts::13             218                       # Per bank write bursts
system.mem_ctrls0.perBankWrBursts::14             154                       # Per bank write bursts
system.mem_ctrls0.perBankWrBursts::15             227                       # Per bank write bursts
system.mem_ctrls0.numRdRetry                        0                       # Number of times read queue was full causing retry
system.mem_ctrls0.numWrRetry                        0                       # Number of times write queue was full causing retry
system.mem_ctrls0.totGap                  22734402000                       # Total gap between requests
system.mem_ctrls0.readPktSize::0                    0                       # Read request sizes (log2)
system.mem_ctrls0.readPktSize::1                    0                       # Read request sizes (log2)
system.mem_ctrls0.readPktSize::2                    0                       # Read request sizes (log2)
system.mem_ctrls0.readPktSize::3                    0                       # Read request sizes (log2)
system.mem_ctrls0.readPktSize::4                    0                       # Read request sizes (log2)
system.mem_ctrls0.readPktSize::5                    0                       # Read request sizes (log2)
system.mem_ctrls0.readPktSize::6                48927                       # Read request sizes (log2)
system.mem_ctrls0.writePktSize::0                   0                       # Write request sizes (log2)
system.mem_ctrls0.writePktSize::1                   0                       # Write request sizes (log2)
system.mem_ctrls0.writePktSize::2                   0                       # Write request sizes (log2)
system.mem_ctrls0.writePktSize::3                   0                       # Write request sizes (log2)
system.mem_ctrls0.writePktSize::4                   0                       # Write request sizes (log2)
system.mem_ctrls0.writePktSize::5                   0                       # Write request sizes (log2)
system.mem_ctrls0.writePktSize::6                7422                       # Write request sizes (log2)
system.mem_ctrls0.rdQLenPdf::0                  41492                       # What read queue length does an incoming req see
system.mem_ctrls0.rdQLenPdf::1                   6177                       # What read queue length does an incoming req see
system.mem_ctrls0.rdQLenPdf::2                    971                       # What read queue length does an incoming req see
system.mem_ctrls0.rdQLenPdf::3                    172                       # What read queue length does an incoming req see
system.mem_ctrls0.rdQLenPdf::4                     26                       # What read queue length does an incoming req see
system.mem_ctrls0.rdQLenPdf::5                      6                       # What read queue length does an incoming req see
system.mem_ctrls0.rdQLenPdf::6                      1                       # What read queue length does an incoming req see
system.mem_ctrls0.rdQLenPdf::7                      0                       # What read queue length does an incoming req see
system.mem_ctrls0.rdQLenPdf::8                      0                       # What read queue length does an incoming req see
system.mem_ctrls0.rdQLenPdf::9                      0                       # What read queue length does an incoming req see
system.mem_ctrls0.rdQLenPdf::10                     0                       # What read queue length does an incoming req see
system.mem_ctrls0.rdQLenPdf::11                     0                       # What read queue length does an incoming req see
system.mem_ctrls0.rdQLenPdf::12                     0                       # What read queue length does an incoming req see
system.mem_ctrls0.rdQLenPdf::13                     0                       # What read queue length does an incoming req see
system.mem_ctrls0.rdQLenPdf::14                     0                       # What read queue length does an incoming req see
system.mem_ctrls0.rdQLenPdf::15                     0                       # What read queue length does an incoming req see
system.mem_ctrls0.rdQLenPdf::16                     0                       # What read queue length does an incoming req see
system.mem_ctrls0.rdQLenPdf::17                     0                       # What read queue length does an incoming req see
system.mem_ctrls0.rdQLenPdf::18                     0                       # What read queue length does an incoming req see
system.mem_ctrls0.rdQLenPdf::19                     0                       # What read queue length does an incoming req see
system.mem_ctrls0.rdQLenPdf::20                     0                       # What read queue length does an incoming req see
system.mem_ctrls0.rdQLenPdf::21                     0                       # What read queue length does an incoming req see
system.mem_ctrls0.rdQLenPdf::22                     0                       # What read queue length does an incoming req see
system.mem_ctrls0.rdQLenPdf::23                     0                       # What read queue length does an incoming req see
system.mem_ctrls0.rdQLenPdf::24                     0                       # What read queue length does an incoming req see
system.mem_ctrls0.rdQLenPdf::25                     0                       # What read queue length does an incoming req see
system.mem_ctrls0.rdQLenPdf::26                     0                       # What read queue length does an incoming req see
system.mem_ctrls0.rdQLenPdf::27                     0                       # What read queue length does an incoming req see
system.mem_ctrls0.rdQLenPdf::28                     0                       # What read queue length does an incoming req see
system.mem_ctrls0.rdQLenPdf::29                     0                       # What read queue length does an incoming req see
system.mem_ctrls0.rdQLenPdf::30                     0                       # What read queue length does an incoming req see
system.mem_ctrls0.rdQLenPdf::31                     0                       # What read queue length does an incoming req see
system.mem_ctrls0.wrQLenPdf::0                      1                       # What write queue length does an incoming req see
system.mem_ctrls0.wrQLenPdf::1                      1                       # What write queue length does an incoming req see
system.mem_ctrls0.wrQLenPdf::2                      1                       # What write queue length does an incoming req see
system.mem_ctrls0.wrQLenPdf::3                      1                       # What write queue length does an incoming req see
system.mem_ctrls0.wrQLenPdf::4                      1                       # What write queue length does an incoming req see
system.mem_ctrls0.wrQLenPdf::5                      1                       # What write queue length does an incoming req see
system.mem_ctrls0.wrQLenPdf::6                      1                       # What write queue length does an incoming req see
system.mem_ctrls0.wrQLenPdf::7                      1                       # What write queue length does an incoming req see
system.mem_ctrls0.wrQLenPdf::8                      1                       # What write queue length does an incoming req see
system.mem_ctrls0.wrQLenPdf::9                      1                       # What write queue length does an incoming req see
system.mem_ctrls0.wrQLenPdf::10                     1                       # What write queue length does an incoming req see
system.mem_ctrls0.wrQLenPdf::11                     1                       # What write queue length does an incoming req see
system.mem_ctrls0.wrQLenPdf::12                     1                       # What write queue length does an incoming req see
system.mem_ctrls0.wrQLenPdf::13                     1                       # What write queue length does an incoming req see
system.mem_ctrls0.wrQLenPdf::14                     1                       # What write queue length does an incoming req see
system.mem_ctrls0.wrQLenPdf::15                    99                       # What write queue length does an incoming req see
system.mem_ctrls0.wrQLenPdf::16                   110                       # What write queue length does an incoming req see
system.mem_ctrls0.wrQLenPdf::17                   382                       # What write queue length does an incoming req see
system.mem_ctrls0.wrQLenPdf::18                   420                       # What write queue length does an incoming req see
system.mem_ctrls0.wrQLenPdf::19                   424                       # What write queue length does an incoming req see
system.mem_ctrls0.wrQLenPdf::20                   425                       # What write queue length does an incoming req see
system.mem_ctrls0.wrQLenPdf::21                   426                       # What write queue length does an incoming req see
system.mem_ctrls0.wrQLenPdf::22                   422                       # What write queue length does an incoming req see
system.mem_ctrls0.wrQLenPdf::23                   423                       # What write queue length does an incoming req see
system.mem_ctrls0.wrQLenPdf::24                   420                       # What write queue length does an incoming req see
system.mem_ctrls0.wrQLenPdf::25                   422                       # What write queue length does an incoming req see
system.mem_ctrls0.wrQLenPdf::26                   425                       # What write queue length does an incoming req see
system.mem_ctrls0.wrQLenPdf::27                   439                       # What write queue length does an incoming req see
system.mem_ctrls0.wrQLenPdf::28                   446                       # What write queue length does an incoming req see
system.mem_ctrls0.wrQLenPdf::29                   449                       # What write queue length does an incoming req see
system.mem_ctrls0.wrQLenPdf::30                   459                       # What write queue length does an incoming req see
system.mem_ctrls0.wrQLenPdf::31                   465                       # What write queue length does an incoming req see
system.mem_ctrls0.wrQLenPdf::32                   465                       # What write queue length does an incoming req see
system.mem_ctrls0.wrQLenPdf::33                    43                       # What write queue length does an incoming req see
system.mem_ctrls0.wrQLenPdf::34                    34                       # What write queue length does an incoming req see
system.mem_ctrls0.wrQLenPdf::35                    31                       # What write queue length does an incoming req see
system.mem_ctrls0.wrQLenPdf::36                    25                       # What write queue length does an incoming req see
system.mem_ctrls0.wrQLenPdf::37                    22                       # What write queue length does an incoming req see
system.mem_ctrls0.wrQLenPdf::38                    19                       # What write queue length does an incoming req see
system.mem_ctrls0.wrQLenPdf::39                    13                       # What write queue length does an incoming req see
system.mem_ctrls0.wrQLenPdf::40                    13                       # What write queue length does an incoming req see
system.mem_ctrls0.wrQLenPdf::41                    12                       # What write queue length does an incoming req see
system.mem_ctrls0.wrQLenPdf::42                    10                       # What write queue length does an incoming req see
system.mem_ctrls0.wrQLenPdf::43                    10                       # What write queue length does an incoming req see
system.mem_ctrls0.wrQLenPdf::44                     8                       # What write queue length does an incoming req see
system.mem_ctrls0.wrQLenPdf::45                     7                       # What write queue length does an incoming req see
system.mem_ctrls0.wrQLenPdf::46                     9                       # What write queue length does an incoming req see
system.mem_ctrls0.wrQLenPdf::47                     5                       # What write queue length does an incoming req see
system.mem_ctrls0.wrQLenPdf::48                     3                       # What write queue length does an incoming req see
system.mem_ctrls0.wrQLenPdf::49                     2                       # What write queue length does an incoming req see
system.mem_ctrls0.wrQLenPdf::50                     2                       # What write queue length does an incoming req see
system.mem_ctrls0.wrQLenPdf::51                     2                       # What write queue length does an incoming req see
system.mem_ctrls0.wrQLenPdf::52                     2                       # What write queue length does an incoming req see
system.mem_ctrls0.wrQLenPdf::53                     2                       # What write queue length does an incoming req see
system.mem_ctrls0.wrQLenPdf::54                     2                       # What write queue length does an incoming req see
system.mem_ctrls0.wrQLenPdf::55                     2                       # What write queue length does an incoming req see
system.mem_ctrls0.wrQLenPdf::56                     2                       # What write queue length does an incoming req see
system.mem_ctrls0.wrQLenPdf::57                     1                       # What write queue length does an incoming req see
system.mem_ctrls0.wrQLenPdf::58                     1                       # What write queue length does an incoming req see
system.mem_ctrls0.wrQLenPdf::59                     1                       # What write queue length does an incoming req see
system.mem_ctrls0.wrQLenPdf::60                     1                       # What write queue length does an incoming req see
system.mem_ctrls0.wrQLenPdf::61                     1                       # What write queue length does an incoming req see
system.mem_ctrls0.wrQLenPdf::62                     0                       # What write queue length does an incoming req see
system.mem_ctrls0.wrQLenPdf::63                     0                       # What write queue length does an incoming req see
system.mem_ctrls0.bytesPerActivate::samples        23688                       # Bytes accessed per row activation
system.mem_ctrls0.bytesPerActivate::mean   151.945964                       # Bytes accessed per row activation
system.mem_ctrls0.bytesPerActivate::gmean   101.633452                       # Bytes accessed per row activation
system.mem_ctrls0.bytesPerActivate::stdev   202.090293                       # Bytes accessed per row activation
system.mem_ctrls0.bytesPerActivate::0-127        15268     64.45%     64.45% # Bytes accessed per row activation
system.mem_ctrls0.bytesPerActivate::128-255         5008     21.14%     85.60% # Bytes accessed per row activation
system.mem_ctrls0.bytesPerActivate::256-383         1314      5.55%     91.14% # Bytes accessed per row activation
system.mem_ctrls0.bytesPerActivate::384-511          574      2.42%     93.57% # Bytes accessed per row activation
system.mem_ctrls0.bytesPerActivate::512-639          331      1.40%     94.96% # Bytes accessed per row activation
system.mem_ctrls0.bytesPerActivate::640-767          192      0.81%     95.77% # Bytes accessed per row activation
system.mem_ctrls0.bytesPerActivate::768-895          173      0.73%     96.50% # Bytes accessed per row activation
system.mem_ctrls0.bytesPerActivate::896-1023          138      0.58%     97.09% # Bytes accessed per row activation
system.mem_ctrls0.bytesPerActivate::1024-1151          690      2.91%    100.00% # Bytes accessed per row activation
system.mem_ctrls0.bytesPerActivate::total        23688                       # Bytes accessed per row activation
system.mem_ctrls0.rdPerTurnAround::samples          434                       # Reads before turning the bus around for writes
system.mem_ctrls0.rdPerTurnAround::mean    112.497696                       # Reads before turning the bus around for writes
system.mem_ctrls0.rdPerTurnAround::stdev  1081.179615                       # Reads before turning the bus around for writes
system.mem_ctrls0.rdPerTurnAround::0-1023          433     99.77%     99.77% # Reads before turning the bus around for writes
system.mem_ctrls0.rdPerTurnAround::22528-23551            1      0.23%    100.00% # Reads before turning the bus around for writes
system.mem_ctrls0.rdPerTurnAround::total          434                       # Reads before turning the bus around for writes
system.mem_ctrls0.wrPerTurnAround::samples          434                       # Writes before turning the bus around for reads
system.mem_ctrls0.wrPerTurnAround::mean     17.048387                       # Writes before turning the bus around for reads
system.mem_ctrls0.wrPerTurnAround::gmean    16.860983                       # Writes before turning the bus around for reads
system.mem_ctrls0.wrPerTurnAround::stdev     3.160080                       # Writes before turning the bus around for reads
system.mem_ctrls0.wrPerTurnAround::16             312     71.89%     71.89% # Writes before turning the bus around for reads
system.mem_ctrls0.wrPerTurnAround::17              15      3.46%     75.35% # Writes before turning the bus around for reads
system.mem_ctrls0.wrPerTurnAround::18              82     18.89%     94.24% # Writes before turning the bus around for reads
system.mem_ctrls0.wrPerTurnAround::19               9      2.07%     96.31% # Writes before turning the bus around for reads
system.mem_ctrls0.wrPerTurnAround::23               1      0.23%     96.54% # Writes before turning the bus around for reads
system.mem_ctrls0.wrPerTurnAround::25               1      0.23%     96.77% # Writes before turning the bus around for reads
system.mem_ctrls0.wrPerTurnAround::26               1      0.23%     97.00% # Writes before turning the bus around for reads
system.mem_ctrls0.wrPerTurnAround::27               2      0.46%     97.47% # Writes before turning the bus around for reads
system.mem_ctrls0.wrPerTurnAround::29               1      0.23%     97.70% # Writes before turning the bus around for reads
system.mem_ctrls0.wrPerTurnAround::31               1      0.23%     97.93% # Writes before turning the bus around for reads
system.mem_ctrls0.wrPerTurnAround::32               4      0.92%     98.85% # Writes before turning the bus around for reads
system.mem_ctrls0.wrPerTurnAround::34               1      0.23%     99.08% # Writes before turning the bus around for reads
system.mem_ctrls0.wrPerTurnAround::35               1      0.23%     99.31% # Writes before turning the bus around for reads
system.mem_ctrls0.wrPerTurnAround::36               1      0.23%     99.54% # Writes before turning the bus around for reads
system.mem_ctrls0.wrPerTurnAround::37               1      0.23%     99.77% # Writes before turning the bus around for reads
system.mem_ctrls0.wrPerTurnAround::47               1      0.23%    100.00% # Writes before turning the bus around for reads
system.mem_ctrls0.wrPerTurnAround::total          434                       # Writes before turning the bus around for reads
system.mem_ctrls0.masterReadBytes::.ruby.dir_cntrl0      3126080                       # Per-master bytes read from memory
system.mem_ctrls0.masterWriteBytes::.ruby.dir_cntrl0       473536                       # Per-master bytes write to memory
system.mem_ctrls0.masterReadRate::.ruby.dir_cntrl0 137501416.874933183193                       # Per-master bytes read from memory rate (Bytes/sec)
system.mem_ctrls0.masterWriteRate::.ruby.dir_cntrl0 20828600.336935829371                       # Per-master bytes write to memory rate (Bytes/sec)
system.mem_ctrls0.masterReadAccesses::.ruby.dir_cntrl0        48927                       # Per-master read serviced memory accesses
system.mem_ctrls0.masterWriteAccesses::.ruby.dir_cntrl0         7422                       # Per-master write serviced memory accesses
system.mem_ctrls0.masterReadTotalLat::.ruby.dir_cntrl0   2194696865                       # Per-master read total memory access latency
system.mem_ctrls0.masterWriteTotalLat::.ruby.dir_cntrl0 458501050996                       # Per-master write total memory access latency
system.mem_ctrls0.masterReadAvgLat::.ruby.dir_cntrl0     44856.56                       # Per-master read average memory access latency
system.mem_ctrls0.masterWriteAvgLat::.ruby.dir_cntrl0  61775943.28                       # Per-master write average memory access latency
system.mem_ctrls0.totQLat                  1278853115                       # Total ticks spent queuing
system.mem_ctrls0.totMemAccLat             2194696865                       # Total ticks spent from burst creation until serviced by the DRAM
system.mem_ctrls0.totBusLat                 244225000                       # Total ticks spent in databus transfers
system.mem_ctrls0.avgQLat                    26181.86                       # Average queueing delay per DRAM burst
system.mem_ctrls0.avgBusLat                   5000.00                       # Average bus latency per DRAM burst
system.mem_ctrls0.avgMemAccLat               44931.86                       # Average memory access latency per DRAM burst
system.mem_ctrls0.avgRdBW                      137.50                       # Average DRAM read bandwidth in MiByte/s
system.mem_ctrls0.avgWrBW                       20.83                       # Average achieved write bandwidth in MiByte/s
system.mem_ctrls0.avgRdBWSys                   137.73                       # Average system read bandwidth in MiByte/s
system.mem_ctrls0.avgWrBWSys                    20.89                       # Average system write bandwidth in MiByte/s
system.mem_ctrls0.peakBW                     12800.00                       # Theoretical peak bandwidth in MiByte/s
system.mem_ctrls0.busUtil                        1.24                       # Data bus utilization in percentage
system.mem_ctrls0.busUtilRead                    1.07                       # Data bus utilization in percentage for reads
system.mem_ctrls0.busUtilWrite                   0.16                       # Data bus utilization in percentage for writes
system.mem_ctrls0.avgRdQLen                      1.08                       # Average read queue length when enqueuing
system.mem_ctrls0.avgWrQLen                     21.23                       # Average write queue length when enqueuing
system.mem_ctrls0.readRowHits                   30171                       # Number of row buffer hits during reads
system.mem_ctrls0.writeRowHits                   2383                       # Number of row buffer hits during writes
system.mem_ctrls0.readRowHitRate                61.77                       # Row buffer hit rate for reads
system.mem_ctrls0.writeRowHitRate               32.11                       # Row buffer hit rate for writes
system.mem_ctrls0.avgGap                    403457.06                       # Average gap between requests
system.mem_ctrls0.pageHitRate                   57.86                       # Row buffer hit rate, read and write combined
system.mem_ctrls0_0.actEnergy                90342420                       # Energy for activate commands per rank (pJ)
system.mem_ctrls0_0.preEnergy                48018135                       # Energy for precharge commands per rank (pJ)
system.mem_ctrls0_0.readEnergy              185254440                       # Energy for read commands per rank (pJ)
system.mem_ctrls0_0.writeEnergy              19877760                       # Energy for write commands per rank (pJ)
system.mem_ctrls0_0.refreshEnergy        1408140240.000000                       # Energy for refresh commands per rank (pJ)
system.mem_ctrls0_0.actBackEnergy           820575420                       # Energy for active background per rank (pJ)
system.mem_ctrls0_0.preBackEnergy            64074720                       # Energy for precharge background per rank (pJ)
system.mem_ctrls0_0.actPowerDownEnergy     5122111200                       # Energy for active power-down per rank (pJ)
system.mem_ctrls0_0.prePowerDownEnergy     1816731840                       # Energy for precharge power-down per rank (pJ)
system.mem_ctrls0_0.selfRefreshEnergy      1335374700                       # Energy for self refresh per rank (pJ)
system.mem_ctrls0_0.totalEnergy           10910815575                       # Total energy per rank (pJ)
system.mem_ctrls0_0.averagePower           479.914974                       # Core power per rank (mW)
system.mem_ctrls0_0.totalIdleTime         20766586006                       # Total Idle time Per DRAM Rank
system.mem_ctrls0_0.memoryStateTime::IDLE    103386000                       # Time in different power states
system.mem_ctrls0_0.memoryStateTime::REF    595660000                       # Time in different power states
system.mem_ctrls0_0.memoryStateTime::SREF   4804024500                       # Time in different power states
system.mem_ctrls0_0.memoryStateTime::PRE_PDN   4731130000                       # Time in different power states
system.mem_ctrls0_0.memoryStateTime::ACT   1268050994                       # Time in different power states
system.mem_ctrls0_0.memoryStateTime::ACT_PDN  11232630506                       # Time in different power states
system.mem_ctrls0_1.actEnergy                78804180                       # Energy for activate commands per rank (pJ)
system.mem_ctrls0_1.preEnergy                41877825                       # Energy for precharge commands per rank (pJ)
system.mem_ctrls0_1.readEnergy              163498860                       # Energy for read commands per rank (pJ)
system.mem_ctrls0_1.writeEnergy              18745020                       # Energy for write commands per rank (pJ)
system.mem_ctrls0_1.refreshEnergy        1326393120.000000                       # Energy for refresh commands per rank (pJ)
system.mem_ctrls0_1.actBackEnergy           790465740                       # Energy for active background per rank (pJ)
system.mem_ctrls0_1.preBackEnergy            62645760                       # Energy for precharge background per rank (pJ)
system.mem_ctrls0_1.actPowerDownEnergy     4723781520                       # Energy for active power-down per rank (pJ)
system.mem_ctrls0_1.prePowerDownEnergy     1782218400                       # Energy for precharge power-down per rank (pJ)
system.mem_ctrls0_1.selfRefreshEnergy      1587697020                       # Energy for self refresh per rank (pJ)
system.mem_ctrls0_1.totalEnergy           10577232435                       # Total energy per rank (pJ)
system.mem_ctrls0_1.averagePower           465.242235                       # Core power per rank (mW)
system.mem_ctrls0_1.totalIdleTime         20835030760                       # Total Idle time Per DRAM Rank
system.mem_ctrls0_1.memoryStateTime::IDLE    105429500                       # Time in different power states
system.mem_ctrls0_1.memoryStateTime::REF    561080000                       # Time in different power states
system.mem_ctrls0_1.memoryStateTime::SREF   5835209750                       # Time in different power states
system.mem_ctrls0_1.memoryStateTime::PRE_PDN   4641136750                       # Time in different power states
system.mem_ctrls0_1.memoryStateTime::ACT   1232895990                       # Time in different power states
system.mem_ctrls0_1.memoryStateTime::ACT_PDN  10359130010                       # Time in different power states
system.mem_ctrls1.pwrStateResidencyTicks::UNDEFINED 2531099045500                       # Cumulative time (in ticks) in various power states
system.mem_ctrls1.bytes_read::.cpu0.inst           64                       # Number of bytes read from this memory
system.mem_ctrls1.bytes_read::.cpu0.data           32                       # Number of bytes read from this memory
system.mem_ctrls1.bytes_read::.cpu1.data           16                       # Number of bytes read from this memory
system.mem_ctrls1.bytes_read::.ruby.dir_cntrl1      3126592                       # Number of bytes read from this memory
system.mem_ctrls1.bytes_read::total           3126704                       # Number of bytes read from this memory
system.mem_ctrls1.bytes_inst_read::.cpu0.inst           64                       # Number of instructions bytes read from this memory
system.mem_ctrls1.bytes_inst_read::total           64                       # Number of instructions bytes read from this memory
system.mem_ctrls1.bytes_written::.cpu1.data           16                       # Number of bytes written to this memory
system.mem_ctrls1.bytes_written::.ruby.dir_cntrl1       482880                       # Number of bytes written to this memory
system.mem_ctrls1.bytes_written::total         482896                       # Number of bytes written to this memory
system.mem_ctrls1.num_reads::.cpu0.inst             8                       # Number of read requests responded to by this memory
system.mem_ctrls1.num_reads::.cpu0.data             4                       # Number of read requests responded to by this memory
system.mem_ctrls1.num_reads::.cpu1.data             2                       # Number of read requests responded to by this memory
system.mem_ctrls1.num_reads::.ruby.dir_cntrl1        48853                       # Number of read requests responded to by this memory
system.mem_ctrls1.num_reads::total              48867                       # Number of read requests responded to by this memory
system.mem_ctrls1.num_writes::.cpu1.data            2                       # Number of write requests responded to by this memory
system.mem_ctrls1.num_writes::.ruby.dir_cntrl1         7545                       # Number of write requests responded to by this memory
system.mem_ctrls1.num_writes::total              7547                       # Number of write requests responded to by this memory
system.mem_ctrls1.bw_read::.cpu0.inst            2815                       # Total read bandwidth from this memory (bytes/s)
system.mem_ctrls1.bw_read::.cpu0.data            1408                       # Total read bandwidth from this memory (bytes/s)
system.mem_ctrls1.bw_read::.cpu1.data             704                       # Total read bandwidth from this memory (bytes/s)
system.mem_ctrls1.bw_read::.ruby.dir_cntrl1    137523937                       # Total read bandwidth from this memory (bytes/s)
system.mem_ctrls1.bw_read::total            137528864                       # Total read bandwidth from this memory (bytes/s)
system.mem_ctrls1.bw_inst_read::.cpu0.inst         2815                       # Instruction read bandwidth from this memory (bytes/s)
system.mem_ctrls1.bw_inst_read::total            2815                       # Instruction read bandwidth from this memory (bytes/s)
system.mem_ctrls1.bw_write::.cpu1.data            704                       # Write bandwidth from this memory (bytes/s)
system.mem_ctrls1.bw_write::.ruby.dir_cntrl1     21239599                       # Write bandwidth from this memory (bytes/s)
system.mem_ctrls1.bw_write::total            21240302                       # Write bandwidth from this memory (bytes/s)
system.mem_ctrls1.bw_total::.cpu0.inst           2815                       # Total bandwidth to/from this memory (bytes/s)
system.mem_ctrls1.bw_total::.cpu0.data           1408                       # Total bandwidth to/from this memory (bytes/s)
system.mem_ctrls1.bw_total::.cpu1.data           1408                       # Total bandwidth to/from this memory (bytes/s)
system.mem_ctrls1.bw_total::.ruby.dir_cntrl1    158763536                       # Total bandwidth to/from this memory (bytes/s)
system.mem_ctrls1.bw_total::total           158769166                       # Total bandwidth to/from this memory (bytes/s)
system.mem_ctrls1.avgPriority_.ruby.dir_cntrl1::samples     56322.00                       # Average QoS priority value for accepted requests
system.mem_ctrls1.priorityMinLatency     0.000000018750                       # per QoS priority minimum request to response latency (s)
system.mem_ctrls1.priorityMaxLatency     0.005278758500                       # per QoS priority maximum request to response latency (s)
system.mem_ctrls1.numReadWriteTurnArounds          436                       # Number of turnarounds from READ to WRITE
system.mem_ctrls1.numWriteReadTurnArounds          436                       # Number of turnarounds from WRITE to READ
system.mem_ctrls1.numStayReadState             107659                       # Number of times bus staying in READ state
system.mem_ctrls1.numStayWriteState              7147                       # Number of times bus staying in WRITE state
system.mem_ctrls1.readReqs                      48853                       # Number of read requests accepted
system.mem_ctrls1.writeReqs                      7545                       # Number of write requests accepted
system.mem_ctrls1.readBursts                    48853                       # Number of DRAM read bursts, including those serviced by the write queue
system.mem_ctrls1.writeBursts                    7545                       # Number of DRAM write bursts, including those merged in the write queue
system.mem_ctrls1.bytesReadDRAM               3121728                       # Total number of bytes read from DRAM
system.mem_ctrls1.bytesReadWrQ                   4864                       # Total number of bytes read from write queue
system.mem_ctrls1.bytesWritten                 481408                       # Total number of bytes written to DRAM
system.mem_ctrls1.bytesReadSys                3126592                       # Total read bytes from the system interface side
system.mem_ctrls1.bytesWrittenSys              482880                       # Total written bytes from the system interface side
system.mem_ctrls1.servicedByWrQ                    76                       # Number of DRAM read bursts serviced by the write queue
system.mem_ctrls1.mergedWrBursts                    0                       # Number of DRAM write bursts merged with an existing one
system.mem_ctrls1.neitherReadNorWriteReqs            0                       # Number of requests that are neither read nor write
system.mem_ctrls1.perBankRdBursts::0             2455                       # Per bank write bursts
system.mem_ctrls1.perBankRdBursts::1             3640                       # Per bank write bursts
system.mem_ctrls1.perBankRdBursts::2             3167                       # Per bank write bursts
system.mem_ctrls1.perBankRdBursts::3             3088                       # Per bank write bursts
system.mem_ctrls1.perBankRdBursts::4             3549                       # Per bank write bursts
system.mem_ctrls1.perBankRdBursts::5             3256                       # Per bank write bursts
system.mem_ctrls1.perBankRdBursts::6             2995                       # Per bank write bursts
system.mem_ctrls1.perBankRdBursts::7             3732                       # Per bank write bursts
system.mem_ctrls1.perBankRdBursts::8             3732                       # Per bank write bursts
system.mem_ctrls1.perBankRdBursts::9             2981                       # Per bank write bursts
system.mem_ctrls1.perBankRdBursts::10            3137                       # Per bank write bursts
system.mem_ctrls1.perBankRdBursts::11            3038                       # Per bank write bursts
system.mem_ctrls1.perBankRdBursts::12            2772                       # Per bank write bursts
system.mem_ctrls1.perBankRdBursts::13            2471                       # Per bank write bursts
system.mem_ctrls1.perBankRdBursts::14            2328                       # Per bank write bursts
system.mem_ctrls1.perBankRdBursts::15            2436                       # Per bank write bursts
system.mem_ctrls1.perBankWrBursts::0              203                       # Per bank write bursts
system.mem_ctrls1.perBankWrBursts::1              763                       # Per bank write bursts
system.mem_ctrls1.perBankWrBursts::2              656                       # Per bank write bursts
system.mem_ctrls1.perBankWrBursts::3              408                       # Per bank write bursts
system.mem_ctrls1.perBankWrBursts::4              523                       # Per bank write bursts
system.mem_ctrls1.perBankWrBursts::5              444                       # Per bank write bursts
system.mem_ctrls1.perBankWrBursts::6              291                       # Per bank write bursts
system.mem_ctrls1.perBankWrBursts::7              578                       # Per bank write bursts
system.mem_ctrls1.perBankWrBursts::8              949                       # Per bank write bursts
system.mem_ctrls1.perBankWrBursts::9              501                       # Per bank write bursts
system.mem_ctrls1.perBankWrBursts::10             650                       # Per bank write bursts
system.mem_ctrls1.perBankWrBursts::11             477                       # Per bank write bursts
system.mem_ctrls1.perBankWrBursts::12             454                       # Per bank write bursts
system.mem_ctrls1.perBankWrBursts::13             216                       # Per bank write bursts
system.mem_ctrls1.perBankWrBursts::14             182                       # Per bank write bursts
system.mem_ctrls1.perBankWrBursts::15             227                       # Per bank write bursts
system.mem_ctrls1.numRdRetry                        0                       # Number of times read queue was full causing retry
system.mem_ctrls1.numWrRetry                        0                       # Number of times write queue was full causing retry
system.mem_ctrls1.totGap                  22734574000                       # Total gap between requests
system.mem_ctrls1.readPktSize::0                    0                       # Read request sizes (log2)
system.mem_ctrls1.readPktSize::1                    0                       # Read request sizes (log2)
system.mem_ctrls1.readPktSize::2                    0                       # Read request sizes (log2)
system.mem_ctrls1.readPktSize::3                    0                       # Read request sizes (log2)
system.mem_ctrls1.readPktSize::4                    0                       # Read request sizes (log2)
system.mem_ctrls1.readPktSize::5                    0                       # Read request sizes (log2)
system.mem_ctrls1.readPktSize::6                48853                       # Read request sizes (log2)
system.mem_ctrls1.writePktSize::0                   0                       # Write request sizes (log2)
system.mem_ctrls1.writePktSize::1                   0                       # Write request sizes (log2)
system.mem_ctrls1.writePktSize::2                   0                       # Write request sizes (log2)
system.mem_ctrls1.writePktSize::3                   0                       # Write request sizes (log2)
system.mem_ctrls1.writePktSize::4                   0                       # Write request sizes (log2)
system.mem_ctrls1.writePktSize::5                   0                       # Write request sizes (log2)
system.mem_ctrls1.writePktSize::6                7545                       # Write request sizes (log2)
system.mem_ctrls1.rdQLenPdf::0                  41403                       # What read queue length does an incoming req see
system.mem_ctrls1.rdQLenPdf::1                   6226                       # What read queue length does an incoming req see
system.mem_ctrls1.rdQLenPdf::2                    958                       # What read queue length does an incoming req see
system.mem_ctrls1.rdQLenPdf::3                    161                       # What read queue length does an incoming req see
system.mem_ctrls1.rdQLenPdf::4                     27                       # What read queue length does an incoming req see
system.mem_ctrls1.rdQLenPdf::5                      2                       # What read queue length does an incoming req see
system.mem_ctrls1.rdQLenPdf::6                      0                       # What read queue length does an incoming req see
system.mem_ctrls1.rdQLenPdf::7                      0                       # What read queue length does an incoming req see
system.mem_ctrls1.rdQLenPdf::8                      0                       # What read queue length does an incoming req see
system.mem_ctrls1.rdQLenPdf::9                      0                       # What read queue length does an incoming req see
system.mem_ctrls1.rdQLenPdf::10                     0                       # What read queue length does an incoming req see
system.mem_ctrls1.rdQLenPdf::11                     0                       # What read queue length does an incoming req see
system.mem_ctrls1.rdQLenPdf::12                     0                       # What read queue length does an incoming req see
system.mem_ctrls1.rdQLenPdf::13                     0                       # What read queue length does an incoming req see
system.mem_ctrls1.rdQLenPdf::14                     0                       # What read queue length does an incoming req see
system.mem_ctrls1.rdQLenPdf::15                     0                       # What read queue length does an incoming req see
system.mem_ctrls1.rdQLenPdf::16                     0                       # What read queue length does an incoming req see
system.mem_ctrls1.rdQLenPdf::17                     0                       # What read queue length does an incoming req see
system.mem_ctrls1.rdQLenPdf::18                     0                       # What read queue length does an incoming req see
system.mem_ctrls1.rdQLenPdf::19                     0                       # What read queue length does an incoming req see
system.mem_ctrls1.rdQLenPdf::20                     0                       # What read queue length does an incoming req see
system.mem_ctrls1.rdQLenPdf::21                     0                       # What read queue length does an incoming req see
system.mem_ctrls1.rdQLenPdf::22                     0                       # What read queue length does an incoming req see
system.mem_ctrls1.rdQLenPdf::23                     0                       # What read queue length does an incoming req see
system.mem_ctrls1.rdQLenPdf::24                     0                       # What read queue length does an incoming req see
system.mem_ctrls1.rdQLenPdf::25                     0                       # What read queue length does an incoming req see
system.mem_ctrls1.rdQLenPdf::26                     0                       # What read queue length does an incoming req see
system.mem_ctrls1.rdQLenPdf::27                     0                       # What read queue length does an incoming req see
system.mem_ctrls1.rdQLenPdf::28                     0                       # What read queue length does an incoming req see
system.mem_ctrls1.rdQLenPdf::29                     0                       # What read queue length does an incoming req see
system.mem_ctrls1.rdQLenPdf::30                     0                       # What read queue length does an incoming req see
system.mem_ctrls1.rdQLenPdf::31                     0                       # What read queue length does an incoming req see
system.mem_ctrls1.wrQLenPdf::0                      1                       # What write queue length does an incoming req see
system.mem_ctrls1.wrQLenPdf::1                      1                       # What write queue length does an incoming req see
system.mem_ctrls1.wrQLenPdf::2                      1                       # What write queue length does an incoming req see
system.mem_ctrls1.wrQLenPdf::3                      1                       # What write queue length does an incoming req see
system.mem_ctrls1.wrQLenPdf::4                      1                       # What write queue length does an incoming req see
system.mem_ctrls1.wrQLenPdf::5                      1                       # What write queue length does an incoming req see
system.mem_ctrls1.wrQLenPdf::6                      1                       # What write queue length does an incoming req see
system.mem_ctrls1.wrQLenPdf::7                      1                       # What write queue length does an incoming req see
system.mem_ctrls1.wrQLenPdf::8                      1                       # What write queue length does an incoming req see
system.mem_ctrls1.wrQLenPdf::9                      1                       # What write queue length does an incoming req see
system.mem_ctrls1.wrQLenPdf::10                     1                       # What write queue length does an incoming req see
system.mem_ctrls1.wrQLenPdf::11                     1                       # What write queue length does an incoming req see
system.mem_ctrls1.wrQLenPdf::12                     1                       # What write queue length does an incoming req see
system.mem_ctrls1.wrQLenPdf::13                     1                       # What write queue length does an incoming req see
system.mem_ctrls1.wrQLenPdf::14                     1                       # What write queue length does an incoming req see
system.mem_ctrls1.wrQLenPdf::15                   114                       # What write queue length does an incoming req see
system.mem_ctrls1.wrQLenPdf::16                   126                       # What write queue length does an incoming req see
system.mem_ctrls1.wrQLenPdf::17                   380                       # What write queue length does an incoming req see
system.mem_ctrls1.wrQLenPdf::18                   428                       # What write queue length does an incoming req see
system.mem_ctrls1.wrQLenPdf::19                   432                       # What write queue length does an incoming req see
system.mem_ctrls1.wrQLenPdf::20                   429                       # What write queue length does an incoming req see
system.mem_ctrls1.wrQLenPdf::21                   435                       # What write queue length does an incoming req see
system.mem_ctrls1.wrQLenPdf::22                   429                       # What write queue length does an incoming req see
system.mem_ctrls1.wrQLenPdf::23                   435                       # What write queue length does an incoming req see
system.mem_ctrls1.wrQLenPdf::24                   431                       # What write queue length does an incoming req see
system.mem_ctrls1.wrQLenPdf::25                   437                       # What write queue length does an incoming req see
system.mem_ctrls1.wrQLenPdf::26                   437                       # What write queue length does an incoming req see
system.mem_ctrls1.wrQLenPdf::27                   447                       # What write queue length does an incoming req see
system.mem_ctrls1.wrQLenPdf::28                   453                       # What write queue length does an incoming req see
system.mem_ctrls1.wrQLenPdf::29                   458                       # What write queue length does an incoming req see
system.mem_ctrls1.wrQLenPdf::30                   466                       # What write queue length does an incoming req see
system.mem_ctrls1.wrQLenPdf::31                   475                       # What write queue length does an incoming req see
system.mem_ctrls1.wrQLenPdf::32                   466                       # What write queue length does an incoming req see
system.mem_ctrls1.wrQLenPdf::33                    39                       # What write queue length does an incoming req see
system.mem_ctrls1.wrQLenPdf::34                    30                       # What write queue length does an incoming req see
system.mem_ctrls1.wrQLenPdf::35                    31                       # What write queue length does an incoming req see
system.mem_ctrls1.wrQLenPdf::36                    23                       # What write queue length does an incoming req see
system.mem_ctrls1.wrQLenPdf::37                    16                       # What write queue length does an incoming req see
system.mem_ctrls1.wrQLenPdf::38                    17                       # What write queue length does an incoming req see
system.mem_ctrls1.wrQLenPdf::39                    13                       # What write queue length does an incoming req see
system.mem_ctrls1.wrQLenPdf::40                     9                       # What write queue length does an incoming req see
system.mem_ctrls1.wrQLenPdf::41                    10                       # What write queue length does an incoming req see
system.mem_ctrls1.wrQLenPdf::42                     7                       # What write queue length does an incoming req see
system.mem_ctrls1.wrQLenPdf::43                     9                       # What write queue length does an incoming req see
system.mem_ctrls1.wrQLenPdf::44                     5                       # What write queue length does an incoming req see
system.mem_ctrls1.wrQLenPdf::45                     6                       # What write queue length does an incoming req see
system.mem_ctrls1.wrQLenPdf::46                     5                       # What write queue length does an incoming req see
system.mem_ctrls1.wrQLenPdf::47                     5                       # What write queue length does an incoming req see
system.mem_ctrls1.wrQLenPdf::48                     5                       # What write queue length does an incoming req see
system.mem_ctrls1.wrQLenPdf::49                     5                       # What write queue length does an incoming req see
system.mem_ctrls1.wrQLenPdf::50                     4                       # What write queue length does an incoming req see
system.mem_ctrls1.wrQLenPdf::51                     4                       # What write queue length does an incoming req see
system.mem_ctrls1.wrQLenPdf::52                     2                       # What write queue length does an incoming req see
system.mem_ctrls1.wrQLenPdf::53                     2                       # What write queue length does an incoming req see
system.mem_ctrls1.wrQLenPdf::54                     1                       # What write queue length does an incoming req see
system.mem_ctrls1.wrQLenPdf::55                     1                       # What write queue length does an incoming req see
system.mem_ctrls1.wrQLenPdf::56                     1                       # What write queue length does an incoming req see
system.mem_ctrls1.wrQLenPdf::57                     1                       # What write queue length does an incoming req see
system.mem_ctrls1.wrQLenPdf::58                     1                       # What write queue length does an incoming req see
system.mem_ctrls1.wrQLenPdf::59                     0                       # What write queue length does an incoming req see
system.mem_ctrls1.wrQLenPdf::60                     0                       # What write queue length does an incoming req see
system.mem_ctrls1.wrQLenPdf::61                     0                       # What write queue length does an incoming req see
system.mem_ctrls1.wrQLenPdf::62                     0                       # What write queue length does an incoming req see
system.mem_ctrls1.wrQLenPdf::63                     0                       # What write queue length does an incoming req see
system.mem_ctrls1.bytesPerActivate::samples        23690                       # Bytes accessed per row activation
system.mem_ctrls1.bytesPerActivate::mean   152.073618                       # Bytes accessed per row activation
system.mem_ctrls1.bytesPerActivate::gmean   101.572891                       # Bytes accessed per row activation
system.mem_ctrls1.bytesPerActivate::stdev   203.183491                       # Bytes accessed per row activation
system.mem_ctrls1.bytesPerActivate::0-127        15241     64.34%     64.34% # Bytes accessed per row activation
system.mem_ctrls1.bytesPerActivate::128-255         5065     21.38%     85.72% # Bytes accessed per row activation
system.mem_ctrls1.bytesPerActivate::256-383         1316      5.56%     91.27% # Bytes accessed per row activation
system.mem_ctrls1.bytesPerActivate::384-511          515      2.17%     93.44% # Bytes accessed per row activation
system.mem_ctrls1.bytesPerActivate::512-639          330      1.39%     94.84% # Bytes accessed per row activation
system.mem_ctrls1.bytesPerActivate::640-767          210      0.89%     95.72% # Bytes accessed per row activation
system.mem_ctrls1.bytesPerActivate::768-895          165      0.70%     96.42% # Bytes accessed per row activation
system.mem_ctrls1.bytesPerActivate::896-1023          155      0.65%     97.07% # Bytes accessed per row activation
system.mem_ctrls1.bytesPerActivate::1024-1151          693      2.93%    100.00% # Bytes accessed per row activation
system.mem_ctrls1.bytesPerActivate::total        23690                       # Bytes accessed per row activation
system.mem_ctrls1.rdPerTurnAround::samples          436                       # Reads before turning the bus around for writes
system.mem_ctrls1.rdPerTurnAround::mean    111.834862                       # Reads before turning the bus around for writes
system.mem_ctrls1.rdPerTurnAround::stdev  1081.164215                       # Reads before turning the bus around for writes
system.mem_ctrls1.rdPerTurnAround::0-1023          435     99.77%     99.77% # Reads before turning the bus around for writes
system.mem_ctrls1.rdPerTurnAround::22528-23551            1      0.23%    100.00% # Reads before turning the bus around for writes
system.mem_ctrls1.rdPerTurnAround::total          436                       # Reads before turning the bus around for writes
system.mem_ctrls1.wrPerTurnAround::samples          436                       # Writes before turning the bus around for reads
system.mem_ctrls1.wrPerTurnAround::mean     17.252294                       # Writes before turning the bus around for reads
system.mem_ctrls1.wrPerTurnAround::gmean    17.015662                       # Writes before turning the bus around for reads
system.mem_ctrls1.wrPerTurnAround::stdev     3.549404                       # Writes before turning the bus around for reads
system.mem_ctrls1.wrPerTurnAround::16             305     69.95%     69.95% # Writes before turning the bus around for reads
system.mem_ctrls1.wrPerTurnAround::17               9      2.06%     72.02% # Writes before turning the bus around for reads
system.mem_ctrls1.wrPerTurnAround::18              93     21.33%     93.35% # Writes before turning the bus around for reads
system.mem_ctrls1.wrPerTurnAround::19               8      1.83%     95.18% # Writes before turning the bus around for reads
system.mem_ctrls1.wrPerTurnAround::21               1      0.23%     95.41% # Writes before turning the bus around for reads
system.mem_ctrls1.wrPerTurnAround::24               1      0.23%     95.64% # Writes before turning the bus around for reads
system.mem_ctrls1.wrPerTurnAround::25               2      0.46%     96.10% # Writes before turning the bus around for reads
system.mem_ctrls1.wrPerTurnAround::26               1      0.23%     96.33% # Writes before turning the bus around for reads
system.mem_ctrls1.wrPerTurnAround::28               1      0.23%     96.56% # Writes before turning the bus around for reads
system.mem_ctrls1.wrPerTurnAround::32               8      1.83%     98.39% # Writes before turning the bus around for reads
system.mem_ctrls1.wrPerTurnAround::33               2      0.46%     98.85% # Writes before turning the bus around for reads
system.mem_ctrls1.wrPerTurnAround::34               1      0.23%     99.08% # Writes before turning the bus around for reads
system.mem_ctrls1.wrPerTurnAround::37               2      0.46%     99.54% # Writes before turning the bus around for reads
system.mem_ctrls1.wrPerTurnAround::38               1      0.23%     99.77% # Writes before turning the bus around for reads
system.mem_ctrls1.wrPerTurnAround::46               1      0.23%    100.00% # Writes before turning the bus around for reads
system.mem_ctrls1.wrPerTurnAround::total          436                       # Writes before turning the bus around for reads
system.mem_ctrls1.masterReadBytes::.ruby.dir_cntrl1      3121728                       # Per-master bytes read from memory
system.mem_ctrls1.masterWriteBytes::.ruby.dir_cntrl1       481408                       # Per-master bytes write to memory
system.mem_ctrls1.masterReadRate::.ruby.dir_cntrl1 137309993.057807654142                       # Per-master bytes read from memory rate (Bytes/sec)
system.mem_ctrls1.masterWriteRate::.ruby.dir_cntrl1 21174852.241442263126                       # Per-master bytes write to memory rate (Bytes/sec)
system.mem_ctrls1.masterReadAccesses::.ruby.dir_cntrl1        48853                       # Per-master read serviced memory accesses
system.mem_ctrls1.masterWriteAccesses::.ruby.dir_cntrl1         7545                       # Per-master write serviced memory accesses
system.mem_ctrls1.masterReadTotalLat::.ruby.dir_cntrl1   2187204370                       # Per-master read total memory access latency
system.mem_ctrls1.masterWriteTotalLat::.ruby.dir_cntrl1 446798987496                       # Per-master write total memory access latency
system.mem_ctrls1.masterReadAvgLat::.ruby.dir_cntrl1     44771.14                       # Per-master read average memory access latency
system.mem_ctrls1.masterWriteAvgLat::.ruby.dir_cntrl1  59217890.99                       # Per-master write average memory access latency
system.mem_ctrls1.totQLat                  1272635620                       # Total ticks spent queuing
system.mem_ctrls1.totMemAccLat             2187204370                       # Total ticks spent from burst creation until serviced by the DRAM
system.mem_ctrls1.totBusLat                 243885000                       # Total ticks spent in databus transfers
system.mem_ctrls1.avgQLat                    26090.90                       # Average queueing delay per DRAM burst
system.mem_ctrls1.avgBusLat                   5000.00                       # Average bus latency per DRAM burst
system.mem_ctrls1.avgMemAccLat               44840.90                       # Average memory access latency per DRAM burst
system.mem_ctrls1.avgRdBW                      137.31                       # Average DRAM read bandwidth in MiByte/s
system.mem_ctrls1.avgWrBW                       21.17                       # Average achieved write bandwidth in MiByte/s
system.mem_ctrls1.avgRdBWSys                   137.52                       # Average system read bandwidth in MiByte/s
system.mem_ctrls1.avgWrBWSys                    21.24                       # Average system write bandwidth in MiByte/s
system.mem_ctrls1.peakBW                     12800.00                       # Theoretical peak bandwidth in MiByte/s
system.mem_ctrls1.busUtil                        1.24                       # Data bus utilization in percentage
system.mem_ctrls1.busUtilRead                    1.07                       # Data bus utilization in percentage for reads
system.mem_ctrls1.busUtilWrite                   0.17                       # Data bus utilization in percentage for writes
system.mem_ctrls1.avgRdQLen                      1.09                       # Average read queue length when enqueuing
system.mem_ctrls1.avgWrQLen                     20.81                       # Average write queue length when enqueuing
system.mem_ctrls1.readRowHits                   30140                       # Number of row buffer hits during reads
system.mem_ctrls1.writeRowHits                   2466                       # Number of row buffer hits during writes
system.mem_ctrls1.readRowHitRate                61.79                       # Row buffer hit rate for reads
system.mem_ctrls1.writeRowHitRate               32.68                       # Row buffer hit rate for writes
system.mem_ctrls1.avgGap                    403109.58                       # Average gap between requests
system.mem_ctrls1.pageHitRate                   57.89                       # Row buffer hit rate, read and write combined
system.mem_ctrls1_0.actEnergy                89585580                       # Energy for activate commands per rank (pJ)
system.mem_ctrls1_0.preEnergy                47615865                       # Energy for precharge commands per rank (pJ)
system.mem_ctrls1_0.readEnergy              184797480                       # Energy for read commands per rank (pJ)
system.mem_ctrls1_0.writeEnergy              20180520                       # Energy for write commands per rank (pJ)
system.mem_ctrls1_0.refreshEnergy        1395847440.000000                       # Energy for refresh commands per rank (pJ)
system.mem_ctrls1_0.actBackEnergy           815607300                       # Energy for active background per rank (pJ)
system.mem_ctrls1_0.preBackEnergy            66065280                       # Energy for precharge background per rank (pJ)
system.mem_ctrls1_0.actPowerDownEnergy     5016035910                       # Energy for active power-down per rank (pJ)
system.mem_ctrls1_0.prePowerDownEnergy     1850164320                       # Energy for precharge power-down per rank (pJ)
system.mem_ctrls1_0.selfRefreshEnergy      1380497340                       # Energy for self refresh per rank (pJ)
system.mem_ctrls1_0.totalEnergy           10866667305                       # Total energy per rank (pJ)
system.mem_ctrls1_0.averagePower           477.973101                       # Core power per rank (mW)
system.mem_ctrls1_0.totalIdleTime         20772443509                       # Total Idle time Per DRAM Rank
system.mem_ctrls1_0.memoryStateTime::IDLE    108597000                       # Time in different power states
system.mem_ctrls1_0.memoryStateTime::REF    590460000                       # Time in different power states
system.mem_ctrls1_0.memoryStateTime::SREF   4955331500                       # Time in different power states
system.mem_ctrls1_0.memoryStateTime::PRE_PDN   4818159000                       # Time in different power states
system.mem_ctrls1_0.memoryStateTime::ACT   1262180491                       # Time in different power states
system.mem_ctrls1_0.memoryStateTime::ACT_PDN  11000154009                       # Time in different power states
system.mem_ctrls1_1.actEnergy                79582440                       # Energy for activate commands per rank (pJ)
system.mem_ctrls1_1.preEnergy                42287685                       # Energy for precharge commands per rank (pJ)
system.mem_ctrls1_1.readEnergy              163470300                       # Energy for read commands per rank (pJ)
system.mem_ctrls1_1.writeEnergy              19084320                       # Energy for write commands per rank (pJ)
system.mem_ctrls1_1.refreshEnergy        1344832320.000000                       # Energy for refresh commands per rank (pJ)
system.mem_ctrls1_1.actBackEnergy           804080760                       # Energy for active background per rank (pJ)
system.mem_ctrls1_1.preBackEnergy            66039360                       # Energy for precharge background per rank (pJ)
system.mem_ctrls1_1.actPowerDownEnergy     4828367400                       # Energy for active power-down per rank (pJ)
system.mem_ctrls1_1.prePowerDownEnergy     1769610720                       # Energy for precharge power-down per rank (pJ)
system.mem_ctrls1_1.selfRefreshEnergy      1533507780                       # Energy for self refresh per rank (pJ)
system.mem_ctrls1_1.totalEnergy           10651655475                       # Total energy per rank (pJ)
system.mem_ctrls1_1.averagePower           468.515751                       # Core power per rank (mW)
system.mem_ctrls1_1.totalIdleTime         20797528507                       # Total Idle time Per DRAM Rank
system.mem_ctrls1_1.memoryStateTime::IDLE    111995250                       # Time in different power states
system.mem_ctrls1_1.memoryStateTime::REF    568880000                       # Time in different power states
system.mem_ctrls1_1.memoryStateTime::SREF   5600897750                       # Time in different power states
system.mem_ctrls1_1.memoryStateTime::PRE_PDN   4608283000                       # Time in different power states
system.mem_ctrls1_1.memoryStateTime::ACT   1256204493                       # Time in different power states
system.mem_ctrls1_1.memoryStateTime::ACT_PDN  10588621507                       # Time in different power states
system.pwrStateResidencyTicks::UNDEFINED 2531099045500                       # Cumulative time (in ticks) in various power states
system.cpu_voltage_domain.voltage                   1                       # Voltage in Volts
system.cpu_clk_domain.clock                       500                       # Clock period in ticks
system.cpu0.dtb.walker.pwrStateResidencyTicks::UNDEFINED 2531099045500                       # Cumulative time (in ticks) in various power states
system.cpu0.dtb.rdAccesses                          7                       # TLB accesses on read requests
system.cpu0.dtb.wrAccesses                          0                       # TLB accesses on write requests
system.cpu0.dtb.rdMisses                            0                       # TLB misses on read requests
system.cpu0.dtb.wrMisses                            0                       # TLB misses on write requests
system.cpu0.apic_clk_domain.clock                8000                       # Clock period in ticks
system.cpu0.interrupts.pwrStateResidencyTicks::UNDEFINED 2531099045500                       # Cumulative time (in ticks) in various power states
system.cpu0.itb.walker.pwrStateResidencyTicks::UNDEFINED 2531099045500                       # Cumulative time (in ticks) in various power states
system.cpu0.itb.rdAccesses                          0                       # TLB accesses on read requests
system.cpu0.itb.wrAccesses                          8                       # TLB accesses on write requests
system.cpu0.itb.rdMisses                            0                       # TLB misses on read requests
system.cpu0.itb.wrMisses                            0                       # TLB misses on write requests
system.cpu0.numPwrStateTransitions                  1                       # Number of power state transitions
system.cpu0.pwrStateResidencyTicks::ON          11000                       # Cumulative time (in ticks) in various power states
system.cpu0.pwrStateResidencyTicks::OFF   22734882000                       # Cumulative time (in ticks) in various power states
system.cpu0.numCycles                              22                       # number of cpu cycles simulated
system.cpu0.numWorkItemsStarted                     0                       # number of work items this cpu started
system.cpu0.numWorkItemsCompleted                   0                       # number of work items this cpu completed
system.cpu0.kern.inst.arm                           0                       # number of arm instructions executed
system.cpu0.kern.inst.quiesce                       0                       # number of quiesce instructions executed
system.cpu0.committedInsts                          8                       # Number of instructions committed
system.cpu0.committedOps                           22                       # Number of ops (including micro ops) committed
system.cpu0.num_int_alu_accesses                   22                       # Number of integer alu accesses
system.cpu0.num_fp_alu_accesses                     0                       # Number of float alu accesses
system.cpu0.num_vec_alu_accesses                    0                       # Number of vector alu accesses
system.cpu0.num_func_calls                          1                       # number of times a function call or return occured
system.cpu0.num_conditional_control_insts            0                       # number of instructions that are conditional controls
system.cpu0.num_int_insts                          22                       # number of integer instructions
system.cpu0.num_fp_insts                            0                       # number of float instructions
system.cpu0.num_vec_insts                           0                       # number of vector instructions
system.cpu0.num_int_register_reads                 49                       # number of times the integer registers were read
system.cpu0.num_int_register_writes                21                       # number of times the integer registers were written
system.cpu0.num_fp_register_reads                   0                       # number of times the floating registers were read
system.cpu0.num_fp_register_writes                  0                       # number of times the floating registers were written
system.cpu0.num_vec_register_reads                  0                       # number of times the vector registers were read
[...]
system.ruby.L1Cache_Controller.M.Fwd_GETX::total          486                      
system.ruby.L1Cache_Controller.M.Fwd_GETS |        1050     52.92%     52.92% |         934     47.08%    100.00%
system.ruby.L1Cache_Controller.M.Fwd_GETS::total         1984                      
system.ruby.L1Cache_Controller.M.Load_S  |           0      0.00%      0.00% |        2769    100.00%    100.00%
system.ruby.L1Cache_Controller.M.Load_S::total         2769                      
system.ruby.L1Cache_Controller.IS.L1_Replacement |           1     33.33%     33.33% |           2     66.67%    100.00%
system.ruby.L1Cache_Controller.IS.L1_Replacement::total            3                      
system.ruby.L1Cache_Controller.IS.Data_Exclusive |      161627     53.10%     53.10% |      142746     46.90%    100.00%
system.ruby.L1Cache_Controller.IS.Data_Exclusive::total       304373                      
system.ruby.L1Cache_Controller.IS.DataS_fromL1 |        1701     48.92%     48.92% |        1776     51.08%    100.00%
system.ruby.L1Cache_Controller.IS.DataS_fromL1::total         3477                      
system.ruby.L1Cache_Controller.IS.Data_all_Acks |      302099     50.19%     50.19% |      299761     49.81%    100.00%
system.ruby.L1Cache_Controller.IS.Data_all_Acks::total       601860                      
system.ruby.L1Cache_Controller.IS.Data_Exclusive_M |       13455     35.80%     35.80% |       24129     64.20%    100.00%
system.ruby.L1Cache_Controller.IS.Data_Exclusive_M::total        37584                      
system.ruby.L1Cache_Controller.IS.Data_all_Acks_M |       10813     40.93%     40.93% |       15604     59.07%    100.00%
system.ruby.L1Cache_Controller.IS.Data_all_Acks_M::total        26417                      
system.ruby.L1Cache_Controller.IS.Data_Exclusive_S |           0      0.00%      0.00% |         322    100.00%    100.00%
system.ruby.L1Cache_Controller.IS.Data_Exclusive_S::total          322                      
system.ruby.L1Cache_Controller.IS.DataS_fromL1_S |           0      0.00%      0.00% |           3    100.00%    100.00%
system.ruby.L1Cache_Controller.IS.DataS_fromL1_S::total            3                      
system.ruby.L1Cache_Controller.IS.Data_all_Acks_S |           0      0.00%      0.00% |         686    100.00%    100.00%
system.ruby.L1Cache_Controller.IS.Data_all_Acks_S::total          686                      
system.ruby.L1Cache_Controller.IM.L1_Replacement |           2    100.00%    100.00% |           0      0.00%    100.00%
system.ruby.L1Cache_Controller.IM.L1_Replacement::total            2                      
system.ruby.L1Cache_Controller.IM.Data   |         291     64.10%     64.10% |         163     35.90%    100.00%
system.ruby.L1Cache_Controller.IM.Data::total          454                      
system.ruby.L1Cache_Controller.IM.Data_all_Acks |       59282     42.72%     42.72% |       79482     57.28%    100.00%
system.ruby.L1Cache_Controller.IM.Data_all_Acks::total       138764                      
system.ruby.L1Cache_Controller.SM.Inv    |           1    100.00%    100.00% |           0      0.00%    100.00%
system.ruby.L1Cache_Controller.SM.Inv::total            1                      
system.ruby.L1Cache_Controller.SM.Ack    |        1017     47.86%     47.86% |        1108     52.14%    100.00%
system.ruby.L1Cache_Controller.SM.Ack::total         2125                      
system.ruby.L1Cache_Controller.SM.Ack_all |        1308     50.72%     50.72% |        1271     49.28%    100.00%
system.ruby.L1Cache_Controller.SM.Ack_all::total         2579                      
system.ruby.L1Cache_Controller.M_I.Load  |         116     56.04%     56.04% |          91     43.96%    100.00%
system.ruby.L1Cache_Controller.M_I.Load::total          207                      
system.ruby.L1Cache_Controller.M_I.Ifetch |           1     16.67%     16.67% |           5     83.33%    100.00%
system.ruby.L1Cache_Controller.M_I.Ifetch::total            6                      
system.ruby.L1Cache_Controller.M_I.Store |          13     68.42%     68.42% |           6     31.58%    100.00%
system.ruby.L1Cache_Controller.M_I.Store::total           19                      
system.ruby.L1Cache_Controller.M_I.Fwd_GETS |           1    100.00%    100.00% |           0      0.00%    100.00%
system.ruby.L1Cache_Controller.M_I.Fwd_GETS::total            1                      
system.ruby.L1Cache_Controller.M_I.WB_Ack |      233154     48.72%     48.72% |      245424     51.28%    100.00%
system.ruby.L1Cache_Controller.M_I.WB_Ack::total       478578                      
system.ruby.L1Cache_Controller.SINK_WB_ACK.WB_Ack |           1    100.00%    100.00% |           0      0.00%    100.00%
system.ruby.L1Cache_Controller.SINK_WB_ACK.WB_Ack::total            1                      
system.ruby.L1Cache_Controller.SB.CALL_BACK |           0      0.00%      0.00% |         322    100.00%    100.00%
system.ruby.L1Cache_Controller.SB.CALL_BACK::total          322                      
system.ruby.L1Cache_Controller.SB_S.CALL_BACK |           0      0.00%      0.00% |         689    100.00%    100.00%
system.ruby.L1Cache_Controller.SB_S.CALL_BACK::total          689                      
system.ruby.L1Cache_Controller.SB_SS.CALL_BACK |           0      0.00%      0.00% |        4184    100.00%    100.00%
system.ruby.L1Cache_Controller.SB_SS.CALL_BACK::total         4184                      
system.ruby.L1Cache_Controller.SB_EE.CALL_BACK |           0      0.00%      0.00% |        4364    100.00%    100.00%
system.ruby.L1Cache_Controller.SB_EE.CALL_BACK::total         4364                      
system.ruby.L1Cache_Controller.SB_MM.CALL_BACK |           0      0.00%      0.00% |        2769    100.00%    100.00%
system.ruby.L1Cache_Controller.SB_MM.CALL_BACK::total         2769                      
system.ruby.L2Cache_Controller.L1_GET_INSTR |      280017     49.96%     49.96% |      280450     50.04%    100.00%
system.ruby.L2Cache_Controller.L1_GET_INSTR::total       560467                      
system.ruby.L2Cache_Controller.L1_GETS   |      227011     54.79%     54.79% |      187305     45.21%    100.00%
system.ruby.L2Cache_Controller.L1_GETS::total       414316                      
system.ruby.L2Cache_Controller.L1_GETX   |       70630     50.73%     50.73% |       68591     49.27%    100.00%
system.ruby.L2Cache_Controller.L1_GETX::total       139221                      
system.ruby.L2Cache_Controller.L1_UPGRADE |        1047     48.54%     48.54% |        1110     51.46%    100.00%
system.ruby.L2Cache_Controller.L1_UPGRADE::total         2157                      
system.ruby.L2Cache_Controller.L1_PUTX   |      251840     52.62%     52.62% |      226740     47.38%    100.00%
system.ruby.L2Cache_Controller.L1_PUTX::total       478580                      
system.ruby.L2Cache_Controller.L2_Replacement |        6769     49.95%     49.95% |        6782     50.05%    100.00%
system.ruby.L2Cache_Controller.L2_Replacement::total        13551                      
system.ruby.L2Cache_Controller.L2_Replacement_clean |        9189     50.88%     50.88% |        8871     49.12%    100.00%
system.ruby.L2Cache_Controller.L2_Replacement_clean::total        18060                      
system.ruby.L2Cache_Controller.Mem_Data  |       49029     50.15%     50.15% |       48737     49.85%    100.00%
system.ruby.L2Cache_Controller.Mem_Data::total        97766                      
system.ruby.L2Cache_Controller.Mem_Ack   |       16610     50.47%     50.47% |       16299     49.53%    100.00%
system.ruby.L2Cache_Controller.Mem_Ack::total        32909                      
system.ruby.L2Cache_Controller.WB_Data   |         954     47.92%     47.92% |        1037     52.08%    100.00%
system.ruby.L2Cache_Controller.WB_Data::total         1991                      
system.ruby.L2Cache_Controller.WB_Data_clean |         773     51.67%     51.67% |         723     48.33%    100.00%
system.ruby.L2Cache_Controller.WB_Data_clean::total         1496                      
system.ruby.L2Cache_Controller.Ack       |         678     50.41%     50.41% |         667     49.59%    100.00%
system.ruby.L2Cache_Controller.Ack::total         1345                      
system.ruby.L2Cache_Controller.Ack_all   |        4243     50.59%     50.59% |        4144     49.41%    100.00%
system.ruby.L2Cache_Controller.Ack_all::total         8387                      
system.ruby.L2Cache_Controller.Unblock   |        1720     49.43%     49.43% |        1760     50.57%    100.00%
system.ruby.L2Cache_Controller.Unblock::total         3480                      
system.ruby.L2Cache_Controller.Exclusive_Unblock |      254425     52.61%     52.61% |      229196     47.39%    100.00%
system.ruby.L2Cache_Controller.Exclusive_Unblock::total       483621                      
system.ruby.L2Cache_Controller.MEM_Inv   |        1304     50.23%     50.23% |        1292     49.77%    100.00%
system.ruby.L2Cache_Controller.MEM_Inv::total         2596                      
system.ruby.L2Cache_Controller.NP.L1_GET_INSTR |       13189     49.93%     49.93% |       13228     50.07%    100.00%
system.ruby.L2Cache_Controller.NP.L1_GET_INSTR::total        26417                      
system.ruby.L2Cache_Controller.NP.L1_GETS |       19171     51.01%     51.01% |       18413     48.99%    100.00%
system.ruby.L2Cache_Controller.NP.L1_GETS::total        37584                      
system.ruby.L2Cache_Controller.NP.L1_GETX |       16669     49.37%     49.37% |       17096     50.63%    100.00%
system.ruby.L2Cache_Controller.NP.L1_GETX::total        33765                      
system.ruby.L2Cache_Controller.SS.L1_GET_INSTR |      266801     49.96%     49.96% |      267199     50.04%    100.00%
system.ruby.L2Cache_Controller.SS.L1_GET_INSTR::total       534000                      
system.ruby.L2Cache_Controller.SS.L1_GETS |       42481     62.02%     62.02% |       26016     37.98%    100.00%
system.ruby.L2Cache_Controller.SS.L1_GETS::total        68497                      
system.ruby.L2Cache_Controller.SS.L1_GETX |         234     51.09%     51.09% |         224     48.91%    100.00%
system.ruby.L2Cache_Controller.SS.L1_GETX::total          458                      
system.ruby.L2Cache_Controller.SS.L1_UPGRADE |        1038     48.85%     48.85% |        1087     51.15%    100.00%
system.ruby.L2Cache_Controller.SS.L1_UPGRADE::total         2125                      
system.ruby.L2Cache_Controller.SS.L1_PUTX |           0      0.00%      0.00% |           1    100.00%    100.00%
system.ruby.L2Cache_Controller.SS.L1_PUTX::total            1                      
system.ruby.L2Cache_Controller.SS.L2_Replacement |          18     51.43%     51.43% |          17     48.57%    100.00%
system.ruby.L2Cache_Controller.SS.L2_Replacement::total           35                      
system.ruby.L2Cache_Controller.SS.L2_Replacement_clean |        4222     50.62%     50.62% |        4119     49.38%    100.00%
system.ruby.L2Cache_Controller.SS.L2_Replacement_clean::total         8341                      
system.ruby.L2Cache_Controller.M.L1_GET_INSTR |          27     55.10%     55.10% |          22     44.90%    100.00%
system.ruby.L2Cache_Controller.M.L1_GET_INSTR::total           49                      
system.ruby.L2Cache_Controller.M.L1_GETS |      163589     53.69%     53.69% |      141106     46.31%    100.00%
system.ruby.L2Cache_Controller.M.L1_GETS::total       304695                      
system.ruby.L2Cache_Controller.M.L1_GETX |       53265     51.10%     51.10% |       50966     48.90%    100.00%
system.ruby.L2Cache_Controller.M.L1_GETX::total       104231                      
system.ruby.L2Cache_Controller.M.L2_Replacement |        6750     49.94%     49.94% |        6765     50.06%    100.00%
system.ruby.L2Cache_Controller.M.L2_Replacement::total        13515                      
system.ruby.L2Cache_Controller.M.L2_Replacement_clean |        4967     51.11%     51.11% |        4751     48.89%    100.00%
system.ruby.L2Cache_Controller.M.L2_Replacement_clean::total         9718                      
system.ruby.L2Cache_Controller.M.MEM_Inv |         643     50.16%     50.16% |         639     49.84%    100.00%
system.ruby.L2Cache_Controller.M.MEM_Inv::total         1282                      
system.ruby.L2Cache_Controller.MT.L1_GET_INSTR |           0      0.00%      0.00% |           1    100.00%    100.00%
system.ruby.L2Cache_Controller.MT.L1_GET_INSTR::total            1                      
system.ruby.L2Cache_Controller.MT.L1_GETS |        1720     49.44%     49.44% |        1759     50.56%    100.00%
system.ruby.L2Cache_Controller.MT.L1_GETS::total         3479                      
system.ruby.L2Cache_Controller.MT.L1_GETX |         459     60.08%     60.08% |         305     39.92%    100.00%
system.ruby.L2Cache_Controller.MT.L1_GETX::total          764                      
system.ruby.L2Cache_Controller.MT.L1_PUTX |      251840     52.62%     52.62% |      226738     47.38%    100.00%
system.ruby.L2Cache_Controller.MT.L1_PUTX::total       478578                      
system.ruby.L2Cache_Controller.MT.L2_Replacement |           1    100.00%    100.00% |           0      0.00%    100.00%
system.ruby.L2Cache_Controller.MT.L2_Replacement::total            1                      
system.ruby.L2Cache_Controller.MT.L2_Replacement_clean |           0      0.00%      0.00% |           1    100.00%    100.00%
system.ruby.L2Cache_Controller.MT.L2_Replacement_clean::total            1                      
system.ruby.L2Cache_Controller.MT.MEM_Inv |           9     56.25%     56.25% |           7     43.75%    100.00%
system.ruby.L2Cache_Controller.MT.MEM_Inv::total           16                      
system.ruby.L2Cache_Controller.M_I.Mem_Ack |       16610     50.47%     50.47% |       16299     49.53%    100.00%
system.ruby.L2Cache_Controller.M_I.Mem_Ack::total        32909                      
system.ruby.L2Cache_Controller.M_I.MEM_Inv |         643     50.16%     50.16% |         639     49.84%    100.00%
system.ruby.L2Cache_Controller.M_I.MEM_Inv::total         1282                      
system.ruby.L2Cache_Controller.MT_I.WB_Data |           7    100.00%    100.00% |           0      0.00%    100.00%
system.ruby.L2Cache_Controller.MT_I.WB_Data::total            7                      
system.ruby.L2Cache_Controller.MT_I.Ack_all |           3     30.00%     30.00% |           7     70.00%    100.00%
system.ruby.L2Cache_Controller.MT_I.Ack_all::total           10                      
system.ruby.L2Cache_Controller.MT_I.MEM_Inv |           9     56.25%     56.25% |           7     43.75%    100.00%
system.ruby.L2Cache_Controller.MT_I.MEM_Inv::total           16                      
system.ruby.L2Cache_Controller.MCT_I.Ack_all |           0      0.00%      0.00% |           1    100.00%    100.00%
system.ruby.L2Cache_Controller.MCT_I.Ack_all::total            1                      
system.ruby.L2Cache_Controller.I_I.Ack   |         660     50.38%     50.38% |         650     49.62%    100.00%
system.ruby.L2Cache_Controller.I_I.Ack::total         1310                      
system.ruby.L2Cache_Controller.I_I.Ack_all |        4222     50.62%     50.62% |        4119     49.38%    100.00%
system.ruby.L2Cache_Controller.I_I.Ack_all::total         8341                      
system.ruby.L2Cache_Controller.S_I.Ack   |          18     51.43%     51.43% |          17     48.57%    100.00%
system.ruby.L2Cache_Controller.S_I.Ack::total           35                      
system.ruby.L2Cache_Controller.S_I.Ack_all |          18     51.43%     51.43% |          17     48.57%    100.00%
system.ruby.L2Cache_Controller.S_I.Ack_all::total           35                      
system.ruby.L2Cache_Controller.ISS.Mem_Data |       19171     51.01%     51.01% |       18413     48.99%    100.00%
system.ruby.L2Cache_Controller.ISS.Mem_Data::total        37584                      
system.ruby.L2Cache_Controller.IS.Mem_Data |       13189     49.93%     49.93% |       13228     50.07%    100.00%
system.ruby.L2Cache_Controller.IS.Mem_Data::total        26417                      
system.ruby.L2Cache_Controller.IM.Mem_Data |       16669     49.37%     49.37% |       17096     50.63%    100.00%
system.ruby.L2Cache_Controller.IM.Mem_Data::total        33765                      
system.ruby.L2Cache_Controller.SS_MB.L1_GETS |          42     80.77%     80.77% |          10     19.23%    100.00%
system.ruby.L2Cache_Controller.SS_MB.L1_GETS::total           52                      
system.ruby.L2Cache_Controller.SS_MB.L1_GETX |           2    100.00%    100.00% |           0      0.00%    100.00%
system.ruby.L2Cache_Controller.SS_MB.L1_GETX::total            2                      
system.ruby.L2Cache_Controller.SS_MB.L1_UPGRADE |           1    100.00%    100.00% |           0      0.00%    100.00%
system.ruby.L2Cache_Controller.SS_MB.L1_UPGRADE::total            1                      
system.ruby.L2Cache_Controller.SS_MB.Exclusive_Unblock |        1272     49.25%     49.25% |        1311     50.75%    100.00%
system.ruby.L2Cache_Controller.SS_MB.Exclusive_Unblock::total         2583                      
system.ruby.L2Cache_Controller.MT_MB.L1_GETS |           8     88.89%     88.89% |           1     11.11%    100.00%
system.ruby.L2Cache_Controller.MT_MB.L1_GETS::total            9                      
system.ruby.L2Cache_Controller.MT_MB.L1_GETX |           1    100.00%    100.00% |           0      0.00%    100.00%
system.ruby.L2Cache_Controller.MT_MB.L1_GETX::total            1                      
system.ruby.L2Cache_Controller.MT_MB.Exclusive_Unblock |      253153     52.63%     52.63% |      227885     47.37%    100.00%
system.ruby.L2Cache_Controller.MT_MB.Exclusive_Unblock::total       481038                      
system.ruby.L2Cache_Controller.MT_IIB.L1_PUTX |           0      0.00%      0.00% |           1    100.00%    100.00%
system.ruby.L2Cache_Controller.MT_IIB.L1_PUTX::total            1                      
system.ruby.L2Cache_Controller.MT_IIB.WB_Data |         650     46.93%     46.93% |         735     53.07%    100.00%
system.ruby.L2Cache_Controller.MT_IIB.WB_Data::total         1385                      
system.ruby.L2Cache_Controller.MT_IIB.WB_Data_clean |         610     51.56%     51.56% |         573     48.44%    100.00%
system.ruby.L2Cache_Controller.MT_IIB.WB_Data_clean::total         1183                      
system.ruby.L2Cache_Controller.MT_IIB.Unblock |         460     50.44%     50.44% |         452     49.56%    100.00%
system.ruby.L2Cache_Controller.MT_IIB.Unblock::total          912                      
system.ruby.L2Cache_Controller.MT_IB.L1_UPGRADE |           8     25.81%     25.81% |          23     74.19%    100.00%
system.ruby.L2Cache_Controller.MT_IB.L1_UPGRADE::total           31                      
system.ruby.L2Cache_Controller.MT_IB.WB_Data |         297     49.58%     49.58% |         302     50.42%    100.00%
system.ruby.L2Cache_Controller.MT_IB.WB_Data::total          599                      
system.ruby.L2Cache_Controller.MT_IB.WB_Data_clean |         163     52.08%     52.08% |         150     47.92%    100.00%
system.ruby.L2Cache_Controller.MT_IB.WB_Data_clean::total          313                      
system.ruby.L2Cache_Controller.MT_SB.Unblock |        1260     49.07%     49.07% |        1308     50.93%    100.00%
system.ruby.L2Cache_Controller.MT_SB.Unblock::total         2568                      
system.switch_cpus0.kern.inst.arm                   0                       # number of arm instructions executed
system.switch_cpus0.kern.inst.quiesce               0                       # number of quiesce instructions executed
system.switch_cpus1.kern.inst.arm                   0                       # number of arm instructions executed
system.switch_cpus1.kern.inst.quiesce               0                       # number of quiesce instructions executed

---------- End Simulation Statistics   ----------
